
     RDKit          3D

122128  0  0  0  0  0  0  0  0999 V2000
  135.4306  149.8536  198.2322 C   0  0  0  0  0  0  0  0  0  0  0  0
  136.5898  150.0959  197.2251 C   0  0  1  0  0  0  0  0  0  0  0  0
  136.2958  149.2224  196.0700 C   0  0  1  0  0  0  0  0  0  0  0  0
  136.9592  147.8646  196.3371 C   0  0  1  0  0  0  0  0  0  0  0  0
  136.4149  146.8592  195.5734 O   0  0  0  0  0  0  0  0  0  0  0  0
  135.9891  145.6475  196.0909 C   0  0  0  0  0  0  0  0  0  0  0  0
  135.9381  144.4088  195.2713 C   0  0  2  0  0  0  0  0  0  0  0  0
  136.2831  144.7144  193.8449 C   0  0  0  0  0  0  0  0  0  0  0  0
  134.6037  143.7359  195.3611 C   0  0  0  0  0  0  0  0  0  0  0  0
  133.6139  144.1847  194.3255 C   0  0  0  0  0  0  0  0  0  0  0  0
  135.6435  145.6302  197.2923 O   0  0  0  0  0  0  0  0  0  0  0  0
  138.4279  148.0903  196.2711 C   0  0  2  0  0  0  0  0  0  0  0  0
  139.2720  146.8653  196.0726 C   0  0  2  0  0  0  0  0  0  0  0  0
  138.9834  145.7836  197.0598 C   0  0  0  0  0  0  0  0  0  0  0  0
  134.9085  149.0649  195.8171 O   0  0  0  0  0  0  0  0  0  0  0  0
  134.4364  148.5785  194.6131 C   0  0  0  0  0  0  0  0  0  0  0  0
  133.3065  147.6366  194.5180 C   0  0  0  0  0  0  0  0  0  0  0  0
  135.0022  148.9626  193.5593 O   0  0  0  0  0  0  0  0  0  0  0  0
  136.5590  151.5780  196.9728 C   0  0  2  0  0  0  0  0  0  0  0  0
  137.4018  152.0793  195.8968 C   0  0  0  0  0  0  0  0  0  0  0  0
  137.4077  151.3566  194.5964 C   0  0  0  0  0  0  0  0  0  0  0  0
  138.0954  153.0503  196.0016 O   0  0  0  0  0  0  0  0  0  0  0  0
  137.8921  149.8431  197.9003 C   0  0  2  0  0  0  0  0  0  0  0  0
  138.1942  151.1186  198.6484 C   0  0  0  0  0  0  0  0  0  0  0  0
  137.1651  152.1375  198.2853 C   0  0  0  0  0  0  0  0  0  0  0  0
  138.8009  148.9235  197.4537 C   0  0  2  0  0  0  0  0  0  0  0  0
  140.2557  149.0508  197.7513 C   0  0  0  0  0  0  0  0  0  0  0  0
  140.9424  147.7076  197.6512 C   0  0  0  0  0  0  0  0  0  0  0  0
  140.7303  147.2504  196.2274 C   0  0  1  0  0  0  0  0  0  0  0  0
  141.7069  146.2190  195.8080 C   0  0  0  0  0  0  0  0  0  0  0  0
  141.4368  145.7139  194.4332 C   0  0  1  0  0  0  0  0  0  0  0  0
  142.3633  144.8633  193.9067 O   0  0  0  0  0  0  0  0  0  0  0  0
  142.1084  144.3989  192.6512 C   0  0  2  0  0  0  0  0  0  0  0  0
  142.8184  145.0444  191.6428 O   0  0  0  0  0  0  0  0  0  0  0  0
  142.6125  146.4098  191.5930 C   0  0  2  0  0  0  0  0  0  0  0  0
  143.0884  147.0287  192.8905 C   0  0  0  0  0  0  0  0  0  0  0  0
  141.1663  146.7023  191.3555 C   0  0  1  0  0  0  0  0  0  0  0  0
  140.9258  147.5399  190.2675 O   0  0  0  0  0  0  0  0  0  0  0  0
  141.5589  148.7587  190.4151 C   0  0  2  0  0  0  0  0  0  0  0  0
  140.9907  149.5486  191.3902 O   0  0  0  0  0  0  0  0  0  0  0  0
  140.0594  150.4611  190.9480 C   0  0  2  0  0  0  0  0  0  0  0  0
  138.8305  149.8047  190.4130 C   0  0  0  0  0  0  0  0  0  0  0  0
  140.6404  151.4694  189.9758 C   0  0  1  0  0  0  0  0  0  0  0  0
  141.0539  152.6190  190.6703 O   0  0  0  0  0  0  0  0  0  0  0  0
  141.9044  150.9353  189.3067 C   0  0  1  0  0  0  0  0  0  0  0  0
  143.0096  151.0967  190.1251 O   0  0  0  0  0  0  0  0  0  0  0  0
  143.1207  150.0013  190.9539 C   0  0  0  0  0  0  0  0  0  0  0  0
  141.6584  149.4535  189.0815 C   0  0  1  0  0  0  0  0  0  0  0  0
  142.6649  148.9260  188.2780 O   0  0  0  0  0  0  0  0  0  0  0  0
  140.6035  144.5437  192.3837 C   0  0  0  0  0  0  0  0  0  0  0  0
  140.4237  145.3951  191.1345 C   0  0  1  0  0  0  0  0  0  0  0  0
  139.0790  145.6897  191.0197 O   0  0  0  0  0  0  0  0  0  0  0  0
  138.7192  146.8651  191.6690 C   0  0  0  0  0  0  0  0  0  0  0  0
  140.0315  145.1332  194.4437 C   0  0  0  0  0  0  0  0  0  0  0  0
  139.1357  146.3653  194.6513 C   0  0  0  0  0  0  0  0  0  0  0  0
  137.9779  148.6684  198.6521 O   0  0  0  0  0  0  0  0  0  0  0  0
  135.7164  148.8967  198.7590 H   0  0  0  0  0  0  0  0  0  0  0  0
  135.4329  150.6401  198.9921 H   0  0  0  0  0  0  0  0  0  0  0  0
  134.4786  149.7354  197.7020 H   0  0  0  0  0  0  0  0  0  0  0  0
  136.7536  149.5928  195.1450 H   0  0  0  0  0  0  0  0  0  0  0  0
  136.6864  147.6537  197.4144 H   0  0  0  0  0  0  0  0  0  0  0  0
  136.6924  143.7031  195.6758 H   0  0  0  0  0  0  0  0  0  0  0  0
  136.0388  143.8283  193.2027 H   0  0  0  0  0  0  0  0  0  0  0  0
  137.3668  144.8971  193.7235 H   0  0  0  0  0  0  0  0  0  0  0  0
  135.6915  145.5953  193.4690 H   0  0  0  0  0  0  0  0  0  0  0  0
  134.6836  142.6304  195.3115 H   0  0  0  0  0  0  0  0  0  0  0  0
  134.1105  143.9498  196.3570 H   0  0  0  0  0  0  0  0  0  0  0  0
  133.9172  145.0539  193.7404 H   0  0  0  0  0  0  0  0  0  0  0  0
  132.5756  144.2821  194.7597 H   0  0  0  0  0  0  0  0  0  0  0  0
  133.4932  143.3521  193.5695 H   0  0  0  0  0  0  0  0  0  0  0  0
  138.6165  148.7218  195.3520 H   0  0  0  0  0  0  0  0  0  0  0  0
  138.8366  146.2048  198.0848 H   0  0  0  0  0  0  0  0  0  0  0  0
  138.0362  145.2403  196.8509 H   0  0  0  0  0  0  0  0  0  0  0  0
  139.7842  145.0170  197.0370 H   0  0  0  0  0  0  0  0  0  0  0  0
  132.6088  147.9910  193.7186 H   0  0  0  0  0  0  0  0  0  0  0  0
  132.7151  147.5792  195.4587 H   0  0  0  0  0  0  0  0  0  0  0  0
  133.6505  146.6316  194.2681 H   0  0  0  0  0  0  0  0  0  0  0  0
  135.5067  151.9138  196.8686 H   0  0  0  0  0  0  0  0  0  0  0  0
  137.0823  152.0441  193.7653 H   0  0  0  0  0  0  0  0  0  0  0  0
  136.7682  150.4481  194.6510 H   0  0  0  0  0  0  0  0  0  0  0  0
  138.4264  151.0124  194.3202 H   0  0  0  0  0  0  0  0  0  0  0  0
  139.2165  151.4709  198.4138 H   0  0  0  0  0  0  0  0  0  0  0  0
  138.0725  150.9152  199.7428 H   0  0  0  0  0  0  0  0  0  0  0  0
  137.6254  153.1258  198.1089 H   0  0  0  0  0  0  0  0  0  0  0  0
  136.3244  152.2287  199.0009 H   0  0  0  0  0  0  0  0  0  0  0  0
  140.7818  149.8001  197.1386 H   0  0  0  0  0  0  0  0  0  0  0  0
  140.3694  149.3852  198.8100 H   0  0  0  0  0  0  0  0  0  0  0  0
  142.0202  147.7763  197.8875 H   0  0  0  0  0  0  0  0  0  0  0  0
  140.4116  147.0043  198.3238 H   0  0  0  0  0  0  0  0  0  0  0  0
  140.8763  148.1549  195.5822 H   0  0  0  0  0  0  0  0  0  0  0  0
  142.7120  146.7359  195.7677 H   0  0  0  0  0  0  0  0  0  0  0  0
  141.8590  145.4075  196.5531 H   0  0  0  0  0  0  0  0  0  0  0  0
  141.3642  146.5960  193.7454 H   0  0  0  0  0  0  0  0  0  0  0  0
  142.3075  143.3134  192.5203 H   0  0  0  0  0  0  0  0  0  0  0  0
  143.2548  146.8720  190.7789 H   0  0  0  0  0  0  0  0  0  0  0  0
  144.1174  146.6666  193.0813 H   0  0  0  0  0  0  0  0  0  0  0  0
  142.4778  146.6220  193.7223 H   0  0  0  0  0  0  0  0  0  0  0  0
  143.1192  148.1382  192.8593 H   0  0  0  0  0  0  0  0  0  0  0  0
  140.7632  147.2185  192.2723 H   0  0  0  0  0  0  0  0  0  0  0  0
  142.6246  148.5826  190.7453 H   0  0  0  0  0  0  0  0  0  0  0  0
  139.7587  151.0462  191.8687 H   0  0  0  0  0  0  0  0  0  0  0  0
  138.3280  149.1998  191.2178 H   0  0  0  0  0  0  0  0  0  0  0  0
  138.1010  150.5567  190.0382 H   0  0  0  0  0  0  0  0  0  0  0  0
  139.1092  149.0704  189.6388 H   0  0  0  0  0  0  0  0  0  0  0  0
  139.9129  151.6835  189.1839 H   0  0  0  0  0  0  0  0  0  0  0  0
  141.6995  153.1187  190.1002 H   0  0  0  0  0  0  0  0  0  0  0  0
  141.9978  151.4211  188.3177 H   0  0  0  0  0  0  0  0  0  0  0  0
  143.4570  149.1084  190.3851 H   0  0  0  0  0  0  0  0  0  0  0  0
  142.1031  149.8055  191.3862 H   0  0  0  0  0  0  0  0  0  0  0  0
  143.8253  150.1463  191.7920 H   0  0  0  0  0  0  0  0  0  0  0  0
  140.7113  149.3627  188.5019 H   0  0  0  0  0  0  0  0  0  0  0  0
  142.2917  148.3281  187.5836 H   0  0  0  0  0  0  0  0  0  0  0  0
  140.1848  145.1213  193.2258 H   0  0  0  0  0  0  0  0  0  0  0  0
  140.0870  143.5880  192.3211 H   0  0  0  0  0  0  0  0  0  0  0  0
  140.8556  144.8474  190.2995 H   0  0  0  0  0  0  0  0  0  0  0  0
  137.7026  147.1380  191.3326 H   0  0  0  0  0  0  0  0  0  0  0  0
  139.3743  147.7121  191.3357 H   0  0  0  0  0  0  0  0  0  0  0  0
  138.7206  146.7774  192.7711 H   0  0  0  0  0  0  0  0  0  0  0  0
  139.8011  144.7215  193.4597 H   0  0  0  0  0  0  0  0  0  0  0  0
  139.8492  144.4679  195.2868 H   0  0  0  0  0  0  0  0  0  0  0  0
  138.1511  146.0708  194.3333 H   0  0  0  0  0  0  0  0  0  0  0  0
  139.4697  147.1959  193.9703 H   0  0  0  0  0  0  0  0  0  0  0  0
  2  1  1  1
  2  3  1  0
  3  4  1  0
  4  5  1  0
  5  6  1  0
  6  7  1  0
  7  8  1  0
  7  9  1  0
  9 10  1  0
  6 11  2  0
  4 12  1  0
 12 13  1  0
 13 14  1  1
  3 15  1  0
 15 16  1  0
 16 17  1  0
 16 18  2  0
  2 19  1  0
 19 20  1  0
 20 21  1  0
 20 22  2  0
  2 23  1  0
 23 24  1  0
 24 25  1  0
 23 26  1  0
 26 27  1  0
 27 28  1  0
 28 29  1  0
 29 30  1  0
 30 31  1  0
 31 32  1  0
 32 33  1  0
 33 34  1  0
 34 35  1  0
 35 36  1  0
 35 37  1  0
 37 38  1  0
 38 39  1  0
 39 40  1  0
 40 41  1  0
 41 42  1  0
 41 43  1  0
 43 44  1  0
 43 45  1  0
 45 46  1  0
 46 47  1  0
 39 48  1  0
 48 49  1  0
 33 50  1  0
 50 51  1  0
 51 52  1  0
 52 53  1  0
 31 54  1  0
 54 55  1  0
 26 56  1  1
 26 12  1  0
 29 13  1  0
 55 13  1  0
 25 19  1  0
 23 56  1  1
 51 37  1  0
 48 45  1  0
  1 57  1  0
  1 58  1  0
  1 59  1  0
  3 60  1  6
  4 61  1  1
  7 62  1  1
  8 63  1  0
  8 64  1  0
  8 65  1  0
  9 66  1  0
  9 67  1  0
 10 68  1  0
 10 69  1  0
 10 70  1  0
 12 71  1  6
 14 72  1  0
 14 73  1  0
 14 74  1  0
 17 75  1  0
 17 76  1  0
 17 77  1  0
 19 78  1  6
 21 79  1  0
 21 80  1  0
 21 81  1  0
 24 82  1  0
 24 83  1  0
 25 84  1  0
 25 85  1  0
 27 86  1  0
 27 87  1  0
 28 88  1  0
 28 89  1  0
 29 90  1  6
 30 91  1  0
 30 92  1  0
 31 93  1  6
 33 94  1  1
 35 95  1  6
 36 96  1  0
 36 97  1  0
 36 98  1  0
 37 99  1  1
 39100  1  1
 41101  1  1
 42102  1  0
 42103  1  0
 42104  1  0
 43105  1  6
 44106  1  0
 45107  1  6
 47108  1  0
 47109  1  0
 47110  1  0
 48111  1  6
 49112  1  0
 50113  1  0
 50114  1  0
 51115  1  6
 53116  1  0
 53117  1  0
 53118  1  0
 54119  1  0
 54120  1  0
 55121  1  0
 55122  1  0
M  END
>  <docking_score>  (1) 
-3.3010000000000002

$$$$

     RDKit          3D

122128  0  0  0  0  0  0  0  0999 V2000
  140.6611  149.4434  190.0741 C   0  0  0  0  0  0  0  0  0  0  0  0
  139.5438  149.3076  191.1466 C   0  0  1  0  0  0  0  0  0  0  0  0
  139.3162  150.6772  191.6526 C   0  0  1  0  0  0  0  0  0  0  0  0
  140.2703  150.8975  192.8342 C   0  0  1  0  0  0  0  0  0  0  0  0
  140.4639  152.2312  193.1064 O   0  0  0  0  0  0  0  0  0  0  0  0
  141.7036  152.7880  193.3717 C   0  0  0  0  0  0  0  0  0  0  0  0
  141.8542  154.1079  194.0381 C   0  0  2  0  0  0  0  0  0  0  0  0
  140.5145  154.6360  194.4546 C   0  0  0  0  0  0  0  0  0  0  0  0
  142.5646  155.0950  193.1650 C   0  0  0  0  0  0  0  0  0  0  0  0
  141.6540  155.9927  192.3786 C   0  0  0  0  0  0  0  0  0  0  0  0
  142.7096  152.1312  193.0262 O   0  0  0  0  0  0  0  0  0  0  0  0
  139.7986  150.0103  193.9309 C   0  0  2  0  0  0  0  0  0  0  0  0
  140.2896  150.3506  195.3077 C   0  0  2  0  0  0  0  0  0  0  0  0
  141.7737  150.4869  195.3879 C   0  0  0  0  0  0  0  0  0  0  0  0
  139.4935  151.6824  190.6670 O   0  0  0  0  0  0  0  0  0  0  0  0
  140.7126  151.8960  190.0530 C   0  0  0  0  0  0  0  0  0  0  0  0
  141.2061  151.0632  188.9414 C   0  0  0  0  0  0  0  0  0  0  0  0
  141.4238  152.8448  190.4681 O   0  0  0  0  0  0  0  0  0  0  0  0
  138.4007  148.6630  190.4123 C   0  0  2  0  0  0  0  0  0  0  0  0
  137.1239  148.6003  191.1090 C   0  0  0  0  0  0  0  0  0  0  0  0
  136.1279  147.5787  190.6874 C   0  0  0  0  0  0  0  0  0  0  0  0
  136.8295  149.3314  192.0111 O   0  0  0  0  0  0  0  0  0  0  0  0
  139.9601  148.3107  192.1706 C   0  0  2  0  0  0  0  0  0  0  0  0
  139.6252  146.9699  191.5640 C   0  0  0  0  0  0  0  0  0  0  0  0
  138.8895  147.1975  190.2849 C   0  0  0  0  0  0  0  0  0  0  0  0
  140.0577  148.6025  193.5033 C   0  0  2  0  0  0  0  0  0  0  0  0
  139.9202  147.5490  194.5485 C   0  0  0  0  0  0  0  0  0  0  0  0
  140.5902  147.9790  195.8338 C   0  0  0  0  0  0  0  0  0  0  0  0
  139.8788  149.2423  196.2572 C   0  0  1  0  0  0  0  0  0  0  0  0
  140.0563  149.5419  197.6968 C   0  0  0  0  0  0  0  0  0  0  0  0
  139.4230  150.8326  198.0855 C   0  0  1  0  0  0  0  0  0  0  0  0
  139.4137  151.1267  199.4169 O   0  0  0  0  0  0  0  0  0  0  0  0
  138.2116  151.0150  200.0489 C   0  0  2  0  0  0  0  0  0  0  0  0
  137.9752  149.7684  200.6214 O   0  0  0  0  0  0  0  0  0  0  0  0
  138.0348  148.7164  199.7276 C   0  0  2  0  0  0  0  0  0  0  0  0
  139.4305  148.6421  199.1447 C   0  0  0  0  0  0  0  0  0  0  0  0
  137.0116  148.8971  198.6534 C   0  0  1  0  0  0  0  0  0  0  0  0
  136.1618  147.8049  198.4867 O   0  0  0  0  0  0  0  0  0  0  0  0
  136.6071  146.9629  197.4862 C   0  0  2  0  0  0  0  0  0  0  0  0
  136.8321  147.6131  196.2928 O   0  0  0  0  0  0  0  0  0  0  0  0
  135.7888  147.5852  195.3949 C   0  0  2  0  0  0  0  0  0  0  0  0
  134.6039  148.3541  195.8767 C   0  0  0  0  0  0  0  0  0  0  0  0
  135.4226  146.1785  194.9630 C   0  0  1  0  0  0  0  0  0  0  0  0
  136.1070  145.8485  193.7808 O   0  0  0  0  0  0  0  0  0  0  0  0
  135.8805  145.1433  195.9874 C   0  0  1  0  0  0  0  0  0  0  0  0
  137.2213  144.8378  195.8245 O   0  0  0  0  0  0  0  0  0  0  0  0
  137.3425  143.8143  194.9097 C   0  0  0  0  0  0  0  0  0  0  0  0
  135.6740  145.7878  197.3472 C   0  0  1  0  0  0  0  0  0  0  0  0
  135.8556  144.8398  198.3499 O   0  0  0  0  0  0  0  0  0  0  0  0
  137.1048  151.3227  199.0301 C   0  0  0  0  0  0  0  0  0  0  0  0
  136.1701  150.1226  198.9685 C   0  0  1  0  0  0  0  0  0  0  0  0
  135.3042  150.3213  197.9107 O   0  0  0  0  0  0  0  0  0  0  0  0
  135.6943  151.3594  197.0723 C   0  0  0  0  0  0  0  0  0  0  0  0
  140.0728  151.9162  197.2396 C   0  0  0  0  0  0  0  0  0  0  0  0
  139.5936  151.5945  195.8145 C   0  0  0  0  0  0  0  0  0  0  0  0
  141.2610  148.4413  192.6637 O   0  0  0  0  0  0  0  0  0  0  0  0
  140.7017  148.4263  189.5856 H   0  0  0  0  0  0  0  0  0  0  0  0
  140.3445  150.1482  189.3002 H   0  0  0  0  0  0  0  0  0  0  0  0
  141.6201  149.6859  190.5462 H   0  0  0  0  0  0  0  0  0  0  0  0
  138.3081  150.8027  192.0655 H   0  0  0  0  0  0  0  0  0  0  0  0
  141.2521  150.4867  192.4507 H   0  0  0  0  0  0  0  0  0  0  0  0
  142.4757  153.9610  194.9451 H   0  0  0  0  0  0  0  0  0  0  0  0
  140.6544  155.5035  195.1512 H   0  0  0  0  0  0  0  0  0  0  0  0
  139.9395  153.8764  195.0157 H   0  0  0  0  0  0  0  0  0  0  0  0
  139.9286  154.9923  193.5620 H   0  0  0  0  0  0  0  0  0  0  0  0
  143.2736  155.7300  193.7351 H   0  0  0  0  0  0  0  0  0  0  0  0
  143.2007  154.5657  192.3929 H   0  0  0  0  0  0  0  0  0  0  0  0
  140.6985  156.2162  192.8552 H   0  0  0  0  0  0  0  0  0  0  0  0
  141.5457  155.6402  191.3108 H   0  0  0  0  0  0  0  0  0  0  0  0
  142.1632  156.9959  192.2617 H   0  0  0  0  0  0  0  0  0  0  0  0
  138.6759  150.1351  193.9866 H   0  0  0  0  0  0  0  0  0  0  0  0
  142.2829  149.6682  194.8221 H   0  0  0  0  0  0  0  0  0  0  0  0
  142.1548  151.4197  194.9179 H   0  0  0  0  0  0  0  0  0  0  0  0
  142.1009  150.5251  196.4467 H   0  0  0  0  0  0  0  0  0  0  0  0
  140.9877  149.9903  189.1709 H   0  0  0  0  0  0  0  0  0  0  0  0
  142.3068  151.1441  188.8000 H   0  0  0  0  0  0  0  0  0  0  0  0
  140.7198  151.3306  188.0018 H   0  0  0  0  0  0  0  0  0  0  0  0
  138.3038  149.1186  189.4053 H   0  0  0  0  0  0  0  0  0  0  0  0
  135.9487  146.8405  191.5193 H   0  0  0  0  0  0  0  0  0  0  0  0
  136.4586  147.0721  189.7539 H   0  0  0  0  0  0  0  0  0  0  0  0
  135.1383  148.0323  190.4697 H   0  0  0  0  0  0  0  0  0  0  0  0
  139.0310  146.3628  192.2729 H   0  0  0  0  0  0  0  0  0  0  0  0
  140.5862  146.4616  191.2955 H   0  0  0  0  0  0  0  0  0  0  0  0
  138.0306  146.5097  190.1895 H   0  0  0  0  0  0  0  0  0  0  0  0
  139.5154  147.1577  189.3718 H   0  0  0  0  0  0  0  0  0  0  0  0
  138.8831  147.2313  194.7411 H   0  0  0  0  0  0  0  0  0  0  0  0
  140.4611  146.6368  194.2007 H   0  0  0  0  0  0  0  0  0  0  0  0
  140.5166  147.2028  196.6176 H   0  0  0  0  0  0  0  0  0  0  0  0
  141.6424  148.2362  195.5984 H   0  0  0  0  0  0  0  0  0  0  0  0
  138.7884  149.0673  196.0671 H   0  0  0  0  0  0  0  0  0  0  0  0
  139.5014  148.7312  198.2572 H   0  0  0  0  0  0  0  0  0  0  0  0
  141.1038  149.4395  198.0564 H   0  0  0  0  0  0  0  0  0  0  0  0
  138.3570  150.8164  197.7395 H   0  0  0  0  0  0  0  0  0  0  0  0
  138.0542  151.7596  200.8587 H   0  0  0  0  0  0  0  0  0  0  0  0
  137.8767  147.7325  200.2715 H   0  0  0  0  0  0  0  0  0  0  0  0
  139.9986  149.5184  199.5132 H   0  0  0  0  0  0  0  0  0  0  0  0
  139.3636  148.7795  198.0462 H   0  0  0  0  0  0  0  0  0  0  0  0
  139.9821  147.7277  199.4484 H   0  0  0  0  0  0  0  0  0  0  0  0
  137.5567  149.0503  197.6794 H   0  0  0  0  0  0  0  0  0  0  0  0
  137.6030  146.5249  197.7895 H   0  0  0  0  0  0  0  0  0  0  0  0
  136.1803  148.1082  194.4708 H   0  0  0  0  0  0  0  0  0  0  0  0
  134.5709  148.3579  197.0014 H   0  0  0  0  0  0  0  0  0  0  0  0
  134.6379  149.4100  195.5274 H   0  0  0  0  0  0  0  0  0  0  0  0
  133.6780  147.8410  195.5676 H   0  0  0  0  0  0  0  0  0  0  0  0
  134.3338  146.0906  194.8687 H   0  0  0  0  0  0  0  0  0  0  0  0
  136.6157  146.6482  193.4753 H   0  0  0  0  0  0  0  0  0  0  0  0
  135.2048  144.2709  195.9157 H   0  0  0  0  0  0  0  0  0  0  0  0
  136.3777  143.6335  194.3895 H   0  0  0  0  0  0  0  0  0  0  0  0
  137.6374  142.8920  195.4780 H   0  0  0  0  0  0  0  0  0  0  0  0
  138.1084  143.9974  194.1353 H   0  0  0  0  0  0  0  0  0  0  0  0
  134.6073  146.1044  197.4013 H   0  0  0  0  0  0  0  0  0  0  0  0
  136.3523  144.0533  198.0127 H   0  0  0  0  0  0  0  0  0  0  0  0
  137.5928  151.3972  198.0430 H   0  0  0  0  0  0  0  0  0  0  0  0
  136.5822  152.2547  199.2358 H   0  0  0  0  0  0  0  0  0  0  0  0
  135.7006  150.0222  199.9448 H   0  0  0  0  0  0  0  0  0  0  0  0
  136.7962  151.3315  196.9923 H   0  0  0  0  0  0  0  0  0  0  0  0
  135.4606  152.3504  197.5422 H   0  0  0  0  0  0  0  0  0  0  0  0
  135.2595  151.2932  196.0580 H   0  0  0  0  0  0  0  0  0  0  0  0
  139.6590  152.8882  197.5137 H   0  0  0  0  0  0  0  0  0  0  0  0
  141.1602  151.8545  197.2257 H   0  0  0  0  0  0  0  0  0  0  0  0
  139.7361  152.4960  195.2451 H   0  0  0  0  0  0  0  0  0  0  0  0
  138.4894  151.3800  195.8252 H   0  0  0  0  0  0  0  0  0  0  0  0
  2  1  1  6
  2  3  1  0
  3  4  1  0
  4  5  1  0
  5  6  1  0
  6  7  1  0
  7  8  1  0
  7  9  1  0
  9 10  1  0
  6 11  2  0
  4 12  1  0
 12 13  1  0
 13 14  1  6
  3 15  1  0
 15 16  1  0
 16 17  1  0
 16 18  2  0
  2 19  1  0
 19 20  1  0
 20 21  1  0
 20 22  2  0
  2 23  1  0
 23 24  1  0
 24 25  1  0
 23 26  1  0
 26 27  1  0
 27 28  1  0
 28 29  1  0
 29 30  1  0
 30 31  1  0
 31 32  1  0
 32 33  1  0
 33 34  1  0
 34 35  1  0
 35 36  1  0
 35 37  1  0
 37 38  1  0
 38 39  1  0
 39 40  1  0
 40 41  1  0
 41 42  1  0
 41 43  1  0
 43 44  1  0
 43 45  1  0
 45 46  1  0
 46 47  1  0
 39 48  1  0
 48 49  1  0
 33 50  1  0
 50 51  1  0
 51 52  1  0
 52 53  1  0
 31 54  1  0
 54 55  1  0
 26 56  1  6
 26 12  1  0
 29 13  1  0
 55 13  1  0
 25 19  1  0
 23 56  1  6
 51 37  1  0
 48 45  1  0
  1 57  1  0
  1 58  1  0
  1 59  1  0
  3 60  1  1
  4 61  1  6
  7 62  1  1
  8 63  1  0
  8 64  1  0
  8 65  1  0
  9 66  1  0
  9 67  1  0
 10 68  1  0
 10 69  1  0
 10 70  1  0
 12 71  1  1
 14 72  1  0
 14 73  1  0
 14 74  1  0
 17 75  1  0
 17 76  1  0
 17 77  1  0
 19 78  1  6
 21 79  1  0
 21 80  1  0
 21 81  1  0
 24 82  1  0
 24 83  1  0
 25 84  1  0
 25 85  1  0
 27 86  1  0
 27 87  1  0
 28 88  1  0
 28 89  1  0
 29 90  1  1
 30 91  1  0
 30 92  1  0
 31 93  1  6
 33 94  1  1
 35 95  1  1
 36 96  1  0
 36 97  1  0
 36 98  1  0
 37 99  1  6
 39100  1  1
 41101  1  6
 42102  1  0
 42103  1  0
 42104  1  0
 43105  1  6
 44106  1  0
 45107  1  1
 47108  1  0
 47109  1  0
 47110  1  0
 48111  1  6
 49112  1  0
 50113  1  0
 50114  1  0
 51115  1  1
 53116  1  0
 53117  1  0
 53118  1  0
 54119  1  0
 54120  1  0
 55121  1  0
 55122  1  0
M  END
>  <docking_score>  (2) 
-1.766

$$$$
