
     RDKit          3D

 34 36  0  0  0  0  0  0  0  0999 V2000
  119.3557  152.0865  174.3816 C   0  0  0  0  0  0  0  0  0  0  0  0
  118.3962  153.2352  174.5562 C   0  0  0  0  0  0  0  0  0  0  0  0
  117.6524  153.6597  173.3448 C   0  0  0  0  0  0  0  0  0  0  0  0
  118.2335  153.8426  175.6940 C   0  0  0  0  0  0  0  0  0  0  0  0
  117.3372  154.9724  176.0181 C   0  0  0  0  0  0  0  0  0  0  0  0
  116.3949  154.6001  177.0946 C   0  0  0  0  0  0  0  0  0  0  0  0
  115.1391  154.1086  176.8406 C   0  0  0  0  0  0  0  0  0  0  0  0
  114.4770  153.8619  175.6735 C   0  0  0  0  0  0  0  0  0  0  0  0
  113.2335  153.3697  176.0150 C   0  0  0  0  0  0  0  0  0  0  0  0
  113.1344  153.3163  177.3172 O   0  0  0  0  0  0  0  0  0  0  0  0
  114.2537  153.7501  177.8587 C   0  0  0  0  0  0  0  0  0  0  0  0
  114.6361  153.8871  179.1711 C   0  0  0  0  0  0  0  0  0  0  0  0
  113.7801  153.5397  180.2105 O   0  0  0  0  0  0  0  0  0  0  0  0
  115.9011  154.3815  179.4523 C   0  0  0  0  0  0  0  0  0  0  0  0
  116.2678  154.5117  180.7046 O   0  0  0  0  0  0  0  0  0  0  0  0
  116.7762  154.7363  178.4284 C   0  0  0  0  0  0  0  0  0  0  0  0
  118.0224  155.2200  178.7549 C   0  0  0  0  0  0  0  0  0  0  0  0
  118.3874  155.3483  180.0983 C   0  0  0  0  0  0  0  0  0  0  0  0
  117.4452  154.9696  181.0245 C   0  0  0  0  0  0  0  0  0  0  0  0
  117.7487  155.0757  182.2427 O   0  0  0  0  0  0  0  0  0  0  0  0
  120.0034  152.2810  173.5254 H   0  0  0  0  0  0  0  0  0  0  0  0
  120.0172  152.0747  175.2820 H   0  0  0  0  0  0  0  0  0  0  0  0
  118.7712  151.1418  174.3124 H   0  0  0  0  0  0  0  0  0  0  0  0
  116.9276  154.4246  173.6365 H   0  0  0  0  0  0  0  0  0  0  0  0
  118.3952  154.1139  172.6182 H   0  0  0  0  0  0  0  0  0  0  0  0
  117.1916  152.8049  172.8237 H   0  0  0  0  0  0  0  0  0  0  0  0
  118.8655  153.4418  176.5241 H   0  0  0  0  0  0  0  0  0  0  0  0
  117.8026  155.9467  176.0968 H   0  0  0  0  0  0  0  0  0  0  0  0
  116.6700  155.0762  175.0912 H   0  0  0  0  0  0  0  0  0  0  0  0
  114.8994  154.0414  174.6987 H   0  0  0  0  0  0  0  0  0  0  0  0
  112.5082  153.0936  175.2515 H   0  0  0  0  0  0  0  0  0  0  0  0
  113.1051  154.1684  180.5959 H   0  0  0  0  0  0  0  0  0  0  0  0
  118.6980  155.4857  177.9758 H   0  0  0  0  0  0  0  0  0  0  0  0
  119.3690  155.7311  180.3519 H   0  0  0  0  0  0  0  0  0  0  0  0
  1  2  1  0
  2  3  1  0
  2  4  2  3
  4  5  1  0
  5  6  1  0
  6  7  2  0
  7  8  1  0
  8  9  2  0
  9 10  1  0
  7 11  1  0
 11 12  2  0
 12 13  1  0
 12 14  1  0
 14 15  1  0
 14 16  2  0
 16 17  1  0
 17 18  2  0
 18 19  1  0
 19 20  2  0
 16  6  1  0
 11 10  1  0
 19 15  1  0
  1 21  1  0
  1 22  1  0
  1 23  1  0
  3 24  1  0
  3 25  1  0
  3 26  1  0
  4 27  1  0
  5 28  1  0
  5 29  1  0
  8 30  1  0
  9 31  1  0
 13 32  1  0
 17 33  1  0
 18 34  1  0
M  END
>  <docking_score>  (1) 
-5.4199999999999999

$$$$

     RDKit          3D

 34 36  0  0  0  0  0  0  0  0999 V2000
  114.0940  155.5208  174.3947 C   0  0  0  0  0  0  0  0  0  0  0  0
  114.2357  154.5554  175.5429 C   0  0  0  0  0  0  0  0  0  0  0  0
  113.2744  153.4258  175.5738 C   0  0  0  0  0  0  0  0  0  0  0  0
  115.1326  154.7022  176.4724 C   0  0  0  0  0  0  0  0  0  0  0  0
  115.3927  153.8459  177.6487 C   0  0  0  0  0  0  0  0  0  0  0  0
  116.2554  154.5455  178.6243 C   0  0  0  0  0  0  0  0  0  0  0  0
  117.6081  154.6905  178.4444 C   0  0  0  0  0  0  0  0  0  0  0  0
  118.4434  154.2770  177.4481 C   0  0  0  0  0  0  0  0  0  0  0  0
  119.7124  154.7005  177.7880 C   0  0  0  0  0  0  0  0  0  0  0  0
  119.6625  155.3380  178.9280 O   0  0  0  0  0  0  0  0  0  0  0  0
  118.4197  155.3586  179.3630 C   0  0  0  0  0  0  0  0  0  0  0  0
  117.8613  155.8983  180.4962 C   0  0  0  0  0  0  0  0  0  0  0  0
  118.6396  156.5704  181.4325 O   0  0  0  0  0  0  0  0  0  0  0  0
  116.4959  155.7645  180.6994 C   0  0  0  0  0  0  0  0  0  0  0  0
  115.9614  156.2802  181.7803 O   0  0  0  0  0  0  0  0  0  0  0  0
  115.6957  155.0957  179.7762 C   0  0  0  0  0  0  0  0  0  0  0  0
  114.3452  154.9898  180.0183 C   0  0  0  0  0  0  0  0  0  0  0  0
  113.8018  155.5492  181.1786 C   0  0  0  0  0  0  0  0  0  0  0  0
  114.6839  156.1847  182.0194 C   0  0  0  0  0  0  0  0  0  0  0  0
  114.2200  156.6973  183.0727 O   0  0  0  0  0  0  0  0  0  0  0  0
  113.1226  155.3791  173.9186 H   0  0  0  0  0  0  0  0  0  0  0  0
  114.0844  156.5488  174.8325 H   0  0  0  0  0  0  0  0  0  0  0  0
  114.9646  155.3934  173.7129 H   0  0  0  0  0  0  0  0  0  0  0  0
  112.3172  153.7987  175.9478 H   0  0  0  0  0  0  0  0  0  0  0  0
  113.1355  153.0543  174.5114 H   0  0  0  0  0  0  0  0  0  0  0  0
  113.6609  152.5717  176.1531 H   0  0  0  0  0  0  0  0  0  0  0  0
  115.7826  155.6028  176.3465 H   0  0  0  0  0  0  0  0  0  0  0  0
  114.5415  153.3111  178.0504 H   0  0  0  0  0  0  0  0  0  0  0  0
  116.0601  153.0063  177.2426 H   0  0  0  0  0  0  0  0  0  0  0  0
  118.1135  153.7240  176.5842 H   0  0  0  0  0  0  0  0  0  0  0  0
  120.5664  154.4913  177.1461 H   0  0  0  0  0  0  0  0  0  0  0  0
  118.7717  157.5613  181.4231 H   0  0  0  0  0  0  0  0  0  0  0  0
  113.7278  154.4859  179.3120 H   0  0  0  0  0  0  0  0  0  0  0  0
  112.7381  155.4626  181.3669 H   0  0  0  0  0  0  0  0  0  0  0  0
  1  2  1  0
  2  3  1  0
  2  4  2  3
  4  5  1  0
  5  6  1  0
  6  7  2  0
  7  8  1  0
  8  9  2  0
  9 10  1  0
  7 11  1  0
 11 12  2  0
 12 13  1  0
 12 14  1  0
 14 15  1  0
 14 16  2  0
 16 17  1  0
 17 18  2  0
 18 19  1  0
 19 20  2  0
 16  6  1  0
 11 10  1  0
 19 15  1  0
  1 21  1  0
  1 22  1  0
  1 23  1  0
  3 24  1  0
  3 25  1  0
  3 26  1  0
  4 27  1  0
  5 28  1  0
  5 29  1  0
  8 30  1  0
  9 31  1  0
 13 32  1  0
 17 33  1  0
 18 34  1  0
M  END
>  <docking_score>  (2) 
-4.9370000000000003

$$$$

     RDKit          3D

 34 36  0  0  0  0  0  0  0  0999 V2000
  141.4123  151.2150  191.4926 C   0  0  0  0  0  0  0  0  0  0  0  0
  139.9602  151.1684  191.0930 C   0  0  0  0  0  0  0  0  0  0  0  0
  139.6823  150.9897  189.6467 C   0  0  0  0  0  0  0  0  0  0  0  0
  138.9944  151.2959  191.9538 C   0  0  0  0  0  0  0  0  0  0  0  0
  137.5358  151.2700  191.7163 C   0  0  0  0  0  0  0  0  0  0  0  0
  136.8885  150.2348  192.5499 C   0  0  0  0  0  0  0  0  0  0  0  0
  136.5661  150.4418  193.8676 C   0  0  0  0  0  0  0  0  0  0  0  0
  136.7356  151.5187  194.6879 C   0  0  0  0  0  0  0  0  0  0  0  0
  136.2230  151.1678  195.9205 C   0  0  0  0  0  0  0  0  0  0  0  0
  135.7642  149.9451  195.8636 O   0  0  0  0  0  0  0  0  0  0  0  0
  135.9476  149.4657  194.6509 C   0  0  0  0  0  0  0  0  0  0  0  0
  135.6419  148.2451  194.0993 C   0  0  0  0  0  0  0  0  0  0  0  0
  135.0258  147.2498  194.8499 O   0  0  0  0  0  0  0  0  0  0  0  0
  135.9581  148.0130  192.7689 C   0  0  0  0  0  0  0  0  0  0  0  0
  135.6659  146.8487  192.2409 O   0  0  0  0  0  0  0  0  0  0  0  0
  136.5754  148.9943  191.9969 C   0  0  0  0  0  0  0  0  0  0  0  0
  136.8680  148.7201  190.6805 C   0  0  0  0  0  0  0  0  0  0  0  0
  136.5451  147.4705  190.1431 C   0  0  0  0  0  0  0  0  0  0  0  0
  135.9394  146.5788  190.9957 C   0  0  0  0  0  0  0  0  0  0  0  0
  135.6384  145.4448  190.5365 O   0  0  0  0  0  0  0  0  0  0  0  0
  141.7449  150.2138  191.7708 H   0  0  0  0  0  0  0  0  0  0  0  0
  141.9924  151.4986  190.5807 H   0  0  0  0  0  0  0  0  0  0  0  0
  141.5376  151.9808  192.2906 H   0  0  0  0  0  0  0  0  0  0  0  0
  139.5695  151.9781  189.1933 H   0  0  0  0  0  0  0  0  0  0  0  0
  140.5751  150.4696  189.1796 H   0  0  0  0  0  0  0  0  0  0  0  0
  138.8144  150.3332  189.4720 H   0  0  0  0  0  0  0  0  0  0  0  0
  139.3344  151.4446  193.0082 H   0  0  0  0  0  0  0  0  0  0  0  0
  137.0407  152.2315  191.6662 H   0  0  0  0  0  0  0  0  0  0  0  0
  137.4326  150.8676  190.6473 H   0  0  0  0  0  0  0  0  0  0  0  0
  137.1939  152.4418  194.3735 H   0  0  0  0  0  0  0  0  0  0  0  0
  136.2399  151.8649  196.7564 H   0  0  0  0  0  0  0  0  0  0  0  0
  134.1638  146.8190  194.5836 H   0  0  0  0  0  0  0  0  0  0  0  0
  137.3332  149.4694  190.0838 H   0  0  0  0  0  0  0  0  0  0  0  0
  136.7783  147.2574  189.1065 H   0  0  0  0  0  0  0  0  0  0  0  0
  1  2  1  0
  2  3  1  0
  2  4  2  3
  4  5  1  0
  5  6  1  0
  6  7  2  0
  7  8  1  0
  8  9  2  0
  9 10  1  0
  7 11  1  0
 11 12  2  0
 12 13  1  0
 12 14  1  0
 14 15  1  0
 14 16  2  0
 16 17  1  0
 17 18  2  0
 18 19  1  0
 19 20  2  0
 16  6  1  0
 11 10  1  0
 19 15  1  0
  1 21  1  0
  1 22  1  0
  1 23  1  0
  3 24  1  0
  3 25  1  0
  3 26  1  0
  4 27  1  0
  5 28  1  0
  5 29  1  0
  8 30  1  0
  9 31  1  0
 13 32  1  0
 17 33  1  0
 18 34  1  0
M  END
>  <docking_score>  (3) 
-4.7569999999999997

$$$$
