
     RDKit          3D

 34 36  0  0  0  0  0  0  0  0999 V2000
  120.5278  153.8675  177.1506 O   0  0  0  0  0  0  0  0  0  0  0  0
  119.3463  154.2188  177.3189 C   0  0  0  0  0  0  0  0  0  0  0  0
  118.9125  154.7977  178.5016 C   0  0  0  0  0  0  0  0  0  0  0  0
  117.6214  155.2002  178.7320 C   0  0  0  0  0  0  0  0  0  0  0  0
  117.1815  155.8156  180.0018 C   0  0  0  0  0  0  0  0  0  0  0  0
  118.0087  155.9813  181.0787 C   0  0  0  0  0  0  0  0  0  0  0  0
  117.5632  156.5670  182.2666 C   0  0  0  0  0  0  0  0  0  0  0  0
  116.2662  156.9992  182.3907 C   0  0  0  0  0  0  0  0  0  0  0  0
  115.7543  157.5895  183.5393 O   0  0  0  0  0  0  0  0  0  0  0  0
  115.4280  156.8333  181.3049 C   0  0  0  0  0  0  0  0  0  0  0  0
  114.0959  157.2685  181.4094 O   0  0  0  0  0  0  0  0  0  0  0  0
  115.8665  156.2543  180.1290 C   0  0  0  0  0  0  0  0  0  0  0  0
  116.7713  155.0121  177.7547 O   0  0  0  0  0  0  0  0  0  0  0  0
  117.0932  154.4721  176.6019 C   0  0  0  0  0  0  0  0  0  0  0  0
  116.1408  154.3040  175.6131 C   0  0  0  0  0  0  0  0  0  0  0  0
  116.4712  153.7393  174.4040 C   0  0  0  0  0  0  0  0  0  0  0  0
  115.5031  153.5700  173.4033 O   0  0  0  0  0  0  0  0  0  0  0  0
  114.1701  153.9470  173.6760 C   0  0  0  0  0  0  0  0  0  0  0  0
  117.7509  153.3267  174.1419 C   0  0  0  0  0  0  0  0  0  0  0  0
  118.7544  153.4809  175.1261 C   0  0  0  0  0  0  0  0  0  0  0  0
  120.0180  153.0633  174.8420 O   0  0  0  0  0  0  0  0  0  0  0  0
  118.3933  154.0466  176.3197 C   0  0  0  0  0  0  0  0  0  0  0  0
  119.6626  154.9270  179.2722 H   0  0  0  0  0  0  0  0  0  0  0  0
  119.0352  155.6543  181.0200 H   0  0  0  0  0  0  0  0  0  0  0  0
  118.2357  156.6891  183.1089 H   0  0  0  0  0  0  0  0  0  0  0  0
  116.0108  157.3595  184.4673 H   0  0  0  0  0  0  0  0  0  0  0  0
  113.3660  156.7509  180.9366 H   0  0  0  0  0  0  0  0  0  0  0  0
  115.2228  156.1182  179.2724 H   0  0  0  0  0  0  0  0  0  0  0  0
  115.1133  154.6294  175.8091 H   0  0  0  0  0  0  0  0  0  0  0  0
  113.7156  153.1397  174.2784 H   0  0  0  0  0  0  0  0  0  0  0  0
  114.1930  154.9253  174.1772 H   0  0  0  0  0  0  0  0  0  0  0  0
  113.6214  154.0841  172.7162 H   0  0  0  0  0  0  0  0  0  0  0  0
  118.0687  152.8817  173.2234 H   0  0  0  0  0  0  0  0  0  0  0  0
  120.6063  152.9229  174.1200 H   0  0  0  0  0  0  0  0  0  0  0  0
  1  2  2  0
  2  3  1  0
  3  4  2  0
  4  5  1  0
  5  6  2  0
  6  7  1  0
  7  8  2  0
  8  9  1  0
  8 10  1  0
 10 11  1  0
 10 12  2  0
  4 13  1  0
 13 14  1  0
 14 15  2  0
 15 16  1  0
 16 17  1  0
 17 18  1  0
 16 19  2  0
 19 20  1  0
 20 21  1  0
 20 22  2  0
 22  2  1  0
 12  5  1  0
 22 14  1  0
  3 23  1  0
  6 24  1  0
  7 25  1  0
  9 26  1  0
 11 27  1  0
 12 28  1  0
 15 29  1  0
 18 30  1  0
 18 31  1  0
 18 32  1  0
 19 33  1  0
 21 34  1  0
M  END
>  <docking_score>  (1) 
-6.2359999999999998

$$$$

     RDKit          3D

 34 36  0  0  0  0  0  0  0  0999 V2000
  119.9389  154.2198  177.5996 O   0  0  0  0  0  0  0  0  0  0  0  0
  118.7043  154.3656  177.5535 C   0  0  0  0  0  0  0  0  0  0  0  0
  117.9748  154.8082  178.6463 C   0  0  0  0  0  0  0  0  0  0  0  0
  116.6142  154.9837  178.6421 C   0  0  0  0  0  0  0  0  0  0  0  0
  115.8571  155.4569  179.8199 C   0  0  0  0  0  0  0  0  0  0  0  0
  115.0643  154.6391  180.5775 C   0  0  0  0  0  0  0  0  0  0  0  0
  114.3602  155.1164  181.6862 C   0  0  0  0  0  0  0  0  0  0  0  0
  114.4434  156.4364  182.0533 C   0  0  0  0  0  0  0  0  0  0  0  0
  113.7728  156.9803  183.1414 O   0  0  0  0  0  0  0  0  0  0  0  0
  115.2432  157.2654  181.2902 C   0  0  0  0  0  0  0  0  0  0  0  0
  115.3433  158.6208  181.6474 O   0  0  0  0  0  0  0  0  0  0  0  0
  115.9405  156.7955  180.1931 C   0  0  0  0  0  0  0  0  0  0  0  0
  115.9965  154.7074  177.5216 O   0  0  0  0  0  0  0  0  0  0  0  0
  116.6056  154.2835  176.4384 C   0  0  0  0  0  0  0  0  0  0  0  0
  115.8875  154.0109  175.2881 C   0  0  0  0  0  0  0  0  0  0  0  0
  116.5191  153.5669  174.1507 C   0  0  0  0  0  0  0  0  0  0  0  0
  115.7881  153.2911  172.9859 O   0  0  0  0  0  0  0  0  0  0  0  0
  115.1251  152.0494  172.8770 C   0  0  0  0  0  0  0  0  0  0  0  0
  117.8760  153.3811  174.1215 C   0  0  0  0  0  0  0  0  0  0  0  0
  118.6468  153.6485  175.2764 C   0  0  0  0  0  0  0  0  0  0  0  0
  119.9929  153.4564  175.2224 O   0  0  0  0  0  0  0  0  0  0  0  0
  117.9881  154.0894  176.3929 C   0  0  0  0  0  0  0  0  0  0  0  0
  118.5423  155.0202  179.5441 H   0  0  0  0  0  0  0  0  0  0  0  0
  114.9732  153.5951  180.3209 H   0  0  0  0  0  0  0  0  0  0  0  0
  113.7370  154.4507  182.2737 H   0  0  0  0  0  0  0  0  0  0  0  0
  112.7935  156.9556  183.2844 H   0  0  0  0  0  0  0  0  0  0  0  0
  115.5475  159.3085  180.9337 H   0  0  0  0  0  0  0  0  0  0  0  0
  116.5692  157.4315  179.5876 H   0  0  0  0  0  0  0  0  0  0  0  0
  114.8015  154.1549  175.2973 H   0  0  0  0  0  0  0  0  0  0  0  0
  115.1905  151.5530  173.8622 H   0  0  0  0  0  0  0  0  0  0  0  0
  114.0977  152.2451  172.5381 H   0  0  0  0  0  0  0  0  0  0  0  0
  115.6181  151.4354  172.0889 H   0  0  0  0  0  0  0  0  0  0  0  0
  118.4232  153.0388  173.2694 H   0  0  0  0  0  0  0  0  0  0  0  0
  120.6892  153.2617  174.6188 H   0  0  0  0  0  0  0  0  0  0  0  0
  1  2  2  0
  2  3  1  0
  3  4  2  0
  4  5  1  0
  5  6  2  0
  6  7  1  0
  7  8  2  0
  8  9  1  0
  8 10  1  0
 10 11  1  0
 10 12  2  0
  4 13  1  0
 13 14  1  0
 14 15  2  0
 15 16  1  0
 16 17  1  0
 17 18  1  0
 16 19  2  0
 19 20  1  0
 20 21  1  0
 20 22  2  0
 22  2  1  0
 12  5  1  0
 22 14  1  0
  3 23  1  0
  6 24  1  0
  7 25  1  0
  9 26  1  0
 11 27  1  0
 12 28  1  0
 15 29  1  0
 18 30  1  0
 18 31  1  0
 18 32  1  0
 19 33  1  0
 21 34  1  0
M  END
>  <docking_score>  (2) 
-5.8029999999999999

$$$$

     RDKit          3D

 34 36  0  0  0  0  0  0  0  0999 V2000
  135.9367  147.3686  193.2689 O   0  0  0  0  0  0  0  0  0  0  0  0
  136.4625  148.4961  193.2654 C   0  0  0  0  0  0  0  0  0  0  0  0
  137.4123  148.8616  192.3239 C   0  0  0  0  0  0  0  0  0  0  0  0
  138.0182  150.0917  192.2810 C   0  0  0  0  0  0  0  0  0  0  0  0
  139.0289  150.4594  191.2672 C   0  0  0  0  0  0  0  0  0  0  0  0
  139.0396  149.9436  190.0002 C   0  0  0  0  0  0  0  0  0  0  0  0
  140.0091  150.3110  189.0633 C   0  0  0  0  0  0  0  0  0  0  0  0
  140.9924  151.2115  189.3896 C   0  0  0  0  0  0  0  0  0  0  0  0
  141.9870  151.6226  188.5113 O   0  0  0  0  0  0  0  0  0  0  0  0
  140.9847  151.7344  190.6685 C   0  0  0  0  0  0  0  0  0  0  0  0
  141.9819  152.6582  191.0247 O   0  0  0  0  0  0  0  0  0  0  0  0
  140.0267  151.3725  191.5969 C   0  0  0  0  0  0  0  0  0  0  0  0
  137.6549  150.9504  193.1996 O   0  0  0  0  0  0  0  0  0  0  0  0
  136.7644  150.6910  194.1290 C   0  0  0  0  0  0  0  0  0  0  0  0
  136.4290  151.6484  195.0692 C   0  0  0  0  0  0  0  0  0  0  0  0
  135.4975  151.3833  196.0448 C   0  0  0  0  0  0  0  0  0  0  0  0
  135.1595  152.3562  196.9969 O   0  0  0  0  0  0  0  0  0  0  0  0
  135.6751  152.2348  198.3056 C   0  0  0  0  0  0  0  0  0  0  0  0
  134.8741  150.1655  196.1157 C   0  0  0  0  0  0  0  0  0  0  0  0
  135.1885  149.1593  195.1733 C   0  0  0  0  0  0  0  0  0  0  0  0
  134.5559  147.9579  195.2645 O   0  0  0  0  0  0  0  0  0  0  0  0
  136.1203  149.4545  194.2143 C   0  0  0  0  0  0  0  0  0  0  0  0
  137.6709  148.1080  191.5902 H   0  0  0  0  0  0  0  0  0  0  0  0
  138.2831  149.2329  189.7057 H   0  0  0  0  0  0  0  0  0  0  0  0
  139.9993  149.8900  188.0637 H   0  0  0  0  0  0  0  0  0  0  0  0
  142.2575  151.1477  187.6860 H   0  0  0  0  0  0  0  0  0  0  0  0
  142.5446  153.0854  190.3002 H   0  0  0  0  0  0  0  0  0  0  0  0
  140.0082  151.7729  192.5998 H   0  0  0  0  0  0  0  0  0  0  0  0
  136.9198  152.6268  195.0244 H   0  0  0  0  0  0  0  0  0  0  0  0
  135.0173  152.8185  198.9748 H   0  0  0  0  0  0  0  0  0  0  0  0
  135.7288  151.1638  198.5480 H   0  0  0  0  0  0  0  0  0  0  0  0
  136.7171  152.6283  198.3300 H   0  0  0  0  0  0  0  0  0  0  0  0
  134.1432  149.8999  196.8490 H   0  0  0  0  0  0  0  0  0  0  0  0
  134.1616  147.3747  195.8902 H   0  0  0  0  0  0  0  0  0  0  0  0
  1  2  2  0
  2  3  1  0
  3  4  2  0
  4  5  1  0
  5  6  2  0
  6  7  1  0
  7  8  2  0
  8  9  1  0
  8 10  1  0
 10 11  1  0
 10 12  2  0
  4 13  1  0
 13 14  1  0
 14 15  2  0
 15 16  1  0
 16 17  1  0
 17 18  1  0
 16 19  2  0
 19 20  1  0
 20 21  1  0
 20 22  2  0
 22  2  1  0
 12  5  1  0
 22 14  1  0
  3 23  1  0
  6 24  1  0
  7 25  1  0
  9 26  1  0
 11 27  1  0
 12 28  1  0
 15 29  1  0
 18 30  1  0
 18 31  1  0
 18 32  1  0
 19 33  1  0
 21 34  1  0
M  END
>  <docking_score>  (3) 
-5.1280000000000001

$$$$
