
     RDKit          3D

125130  0  0  0  0  0  0  0  0999 V2000
  141.6394  145.8104  189.4522 O   0  0  0  0  0  0  0  0  0  0  0  0
  141.6911  146.9178  190.2376 C   0  0  1  0  0  0  0  0  0  0  0  0
  142.0178  148.1828  189.4522 C   0  0  1  0  0  0  0  0  0  0  0  0
  142.2524  149.3003  190.4715 C   0  0  1  0  0  0  0  0  0  0  0  0
  141.7666  150.6231  189.9423 C   0  0  0  0  0  0  0  0  0  0  0  0
  142.3607  151.0245  188.7604 O   0  0  0  0  0  0  0  0  0  0  0  0
  141.8868  148.9556  191.7152 O   0  0  0  0  0  0  0  0  0  0  0  0
  143.0975  147.9255  188.6558 O   0  0  0  0  0  0  0  0  0  0  0  0
  140.3473  147.2617  190.9211 C   0  0  1  0  0  0  0  0  0  0  0  0
  139.7709  146.0981  191.4141 O   0  0  0  0  0  0  0  0  0  0  0  0
  140.0827  145.9052  192.7498 C   0  0  1  0  0  0  0  0  0  0  0  0
  139.8691  144.4683  193.1983 C   0  0  1  0  0  0  0  0  0  0  0  0
  141.1711  143.8008  193.6202 C   0  0  2  0  0  0  0  0  0  0  0  0
  141.7848  144.6648  194.7014 C   0  0  1  0  0  0  0  0  0  0  0  0
  141.7596  146.1048  194.3208 C   0  0  1  0  0  0  0  0  0  0  0  0
  143.1207  146.7306  194.5104 C   0  0  0  0  0  0  0  0  0  0  0  0
  143.1136  147.7466  195.4657 O   0  0  0  0  0  0  0  0  0  0  0  0
  141.3555  146.3451  193.0090 O   0  0  0  0  0  0  0  0  0  0  0  0
  141.1635  144.4964  195.9234 O   0  0  0  0  0  0  0  0  0  0  0  0
  142.0598  143.7255  192.5697 O   0  0  0  0  0  0  0  0  0  0  0  0
  139.0407  144.4134  194.3184 O   0  0  0  0  0  0  0  0  0  0  0  0
  140.6451  148.3197  191.9085 C   0  0  2  0  0  0  0  0  0  0  0  0
  139.7315  149.2983  191.9287 O   0  0  0  0  0  0  0  0  0  0  0  0
  138.9846  149.5895  193.0414 C   0  0  1  0  0  0  0  0  0  0  0  0
  138.1958  148.4222  193.5732 C   0  0  2  0  0  0  0  0  0  0  0  0
  137.0172  148.1886  192.8049 O   0  0  0  0  0  0  0  0  0  0  0  0
  137.6814  148.5880  194.9732 C   0  0  0  0  0  0  0  0  0  0  0  0
  138.7904  148.9323  195.9254 C   0  0  2  0  0  0  0  0  0  0  0  0
  139.7399  147.7976  195.9801 C   0  0  0  0  0  0  0  0  0  0  0  0
  138.2310  149.1770  197.3135 C   0  0  1  0  0  0  0  0  0  0  0  0
  137.2511  148.1915  197.7937 C   0  0  0  0  0  0  0  0  0  0  0  0
  136.4740  148.8114  198.9659 C   0  0  1  0  0  0  0  0  0  0  0  0
  135.6907  147.7815  199.5391 O   0  0  0  0  0  0  0  0  0  0  0  0
  137.4490  149.2538  199.9871 C   0  0  2  0  0  0  0  0  0  0  0  0
  136.9298  150.0755  201.1186 C   0  0  1  0  0  0  0  0  0  0  0  0
  136.2187  149.2479  202.1526 C   0  0  0  0  0  0  0  0  0  0  0  0
  134.8108  149.3910  202.4508 C   0  0  0  0  0  0  0  0  0  0  0  0
  133.8438  149.7086  201.3741 C   0  0  0  0  0  0  0  0  0  0  0  0
  132.4520  149.3282  201.5698 C   0  0  0  0  0  0  0  0  0  0  0  0
  131.5018  150.0312  202.1462 C   0  0  0  0  0  0  0  0  0  0  0  0
  131.7488  151.3865  202.6998 C   0  0  0  0  0  0  0  0  0  0  0  0
  130.0932  149.4934  202.2726 C   0  0  0  0  0  0  0  0  0  0  0  0
  136.9489  148.3580  202.7996 C   0  0  0  0  0  0  0  0  0  0  0  0
  138.2003  150.6406  201.7144 C   0  0  0  0  0  0  0  0  0  0  0  0
  139.2735  150.5738  200.6238 C   0  0  0  0  0  0  0  0  0  0  0  0
  138.4998  150.2007  199.4376 C   0  0  2  0  0  0  0  0  0  0  0  0
  137.7777  151.4456  198.9600 C   0  0  0  0  0  0  0  0  0  0  0  0
  139.2896  149.5308  198.3148 C   0  0  1  0  0  0  0  0  0  0  0  0
  139.9579  148.3223  198.9244 C   0  0  0  0  0  0  0  0  0  0  0  0
  140.3426  150.4426  197.8050 C   0  0  0  0  0  0  0  0  0  0  0  0
  140.6197  150.4482  196.3530 C   0  0  0  0  0  0  0  0  0  0  0  0
  139.3749  150.2375  195.5011 C   0  0  1  0  0  0  0  0  0  0  0  0
  139.6020  150.4784  194.0576 C   0  0  0  0  0  0  0  0  0  0  0  0
  139.1644  151.9273  193.7500 C   0  0  0  0  0  0  0  0  0  0  0  0
  141.1165  150.4763  193.7391 C   0  0  0  0  0  0  0  0  0  0  0  0
  141.7623  146.0798  188.5098 H   0  0  0  0  0  0  0  0  0  0  0  0
  142.4409  146.8161  191.0433 H   0  0  0  0  0  0  0  0  0  0  0  0
  141.1080  148.4455  188.8832 H   0  0  0  0  0  0  0  0  0  0  0  0
  143.3839  149.3940  190.4866 H   0  0  0  0  0  0  0  0  0  0  0  0
  141.8382  151.4259  190.7351 H   0  0  0  0  0  0  0  0  0  0  0  0
  140.6579  150.6010  189.7299 H   0  0  0  0  0  0  0  0  0  0  0  0
  142.2330  150.3196  188.0777 H   0  0  0  0  0  0  0  0  0  0  0  0
  143.3437  146.9630  188.6816 H   0  0  0  0  0  0  0  0  0  0  0  0
  139.6531  147.6565  190.1451 H   0  0  0  0  0  0  0  0  0  0  0  0
  139.3797  146.5126  193.3793 H   0  0  0  0  0  0  0  0  0  0  0  0
  139.4808  143.8689  192.3729 H   0  0  0  0  0  0  0  0  0  0  0  0
  140.9659  142.8156  194.0543 H   0  0  0  0  0  0  0  0  0  0  0  0
  142.8649  144.3603  194.8391 H   0  0  0  0  0  0  0  0  0  0  0  0
  141.0551  146.6954  194.9572 H   0  0  0  0  0  0  0  0  0  0  0  0
  143.4905  147.1958  193.5617 H   0  0  0  0  0  0  0  0  0  0  0  0
  143.8981  146.0065  194.8260 H   0  0  0  0  0  0  0  0  0  0  0  0
  143.2101  148.6471  195.0741 H   0  0  0  0  0  0  0  0  0  0  0  0
  140.2163  144.2584  195.7744 H   0  0  0  0  0  0  0  0  0  0  0  0
  142.8114  144.3512  192.7014 H   0  0  0  0  0  0  0  0  0  0  0  0
  139.5181  144.5764  195.1536 H   0  0  0  0  0  0  0  0  0  0  0  0
  140.8495  147.8043  192.8997 H   0  0  0  0  0  0  0  0  0  0  0  0
  138.1584  150.2058  192.5485 H   0  0  0  0  0  0  0  0  0  0  0  0
  138.7187  147.4526  193.4855 H   0  0  0  0  0  0  0  0  0  0  0  0
  137.2410  147.8410  191.9284 H   0  0  0  0  0  0  0  0  0  0  0  0
  136.8505  149.2988  195.0853 H   0  0  0  0  0  0  0  0  0  0  0  0
  137.2465  147.5762  195.2373 H   0  0  0  0  0  0  0  0  0  0  0  0
  140.6467  147.9005  195.3593 H   0  0  0  0  0  0  0  0  0  0  0  0
  139.8948  147.4914  197.0116 H   0  0  0  0  0  0  0  0  0  0  0  0
  139.2240  146.9150  195.4895 H   0  0  0  0  0  0  0  0  0  0  0  0
  137.6150  150.1190  197.1562 H   0  0  0  0  0  0  0  0  0  0  0  0
  137.6046  147.1895  198.0184 H   0  0  0  0  0  0  0  0  0  0  0  0
  136.4476  148.0805  197.0055 H   0  0  0  0  0  0  0  0  0  0  0  0
  135.7594  149.5375  198.5918 H   0  0  0  0  0  0  0  0  0  0  0  0
  134.8260  147.6853  199.0660 H   0  0  0  0  0  0  0  0  0  0  0  0
  137.8711  148.3416  200.4526 H   0  0  0  0  0  0  0  0  0  0  0  0
  136.3009  150.9110  200.8286 H   0  0  0  0  0  0  0  0  0  0  0  0
  134.4725  148.3820  202.8730 H   0  0  0  0  0  0  0  0  0  0  0  0
  134.5872  150.0991  203.2914 H   0  0  0  0  0  0  0  0  0  0  0  0
  134.1606  149.2319  200.3910 H   0  0  0  0  0  0  0  0  0  0  0  0
  133.8662  150.8138  201.1009 H   0  0  0  0  0  0  0  0  0  0  0  0
  132.1621  148.3283  201.1877 H   0  0  0  0  0  0  0  0  0  0  0  0
  131.6005  151.4055  203.7758 H   0  0  0  0  0  0  0  0  0  0  0  0
  131.0232  152.1071  202.2441 H   0  0  0  0  0  0  0  0  0  0  0  0
  132.7466  151.7614  202.3554 H   0  0  0  0  0  0  0  0  0  0  0  0
  129.9044  149.1595  203.2997 H   0  0  0  0  0  0  0  0  0  0  0  0
  129.9225  148.6920  201.5207 H   0  0  0  0  0  0  0  0  0  0  0  0
  129.3882  150.3237  201.9965 H   0  0  0  0  0  0  0  0  0  0  0  0
  136.6425  147.6834  203.5594 H   0  0  0  0  0  0  0  0  0  0  0  0
  138.0301  148.2728  202.5453 H   0  0  0  0  0  0  0  0  0  0  0  0
  138.0213  151.6872  202.0437 H   0  0  0  0  0  0  0  0  0  0  0  0
  138.5178  149.9906  202.5345 H   0  0  0  0  0  0  0  0  0  0  0  0
  139.6320  151.6389  200.4888 H   0  0  0  0  0  0  0  0  0  0  0  0
  140.1448  150.0107  200.9117 H   0  0  0  0  0  0  0  0  0  0  0  0
  137.7654  152.2615  199.7003 H   0  0  0  0  0  0  0  0  0  0  0  0
  136.7538  151.2864  198.6298 H   0  0  0  0  0  0  0  0  0  0  0  0
  138.2988  151.9093  198.0660 H   0  0  0  0  0  0  0  0  0  0  0  0
  139.2766  147.5353  199.2676 H   0  0  0  0  0  0  0  0  0  0  0  0
  140.7201  147.8574  198.2287 H   0  0  0  0  0  0  0  0  0  0  0  0
  140.5861  148.5529  199.8195 H   0  0  0  0  0  0  0  0  0  0  0  0
  140.1387  151.4758  198.2072 H   0  0  0  0  0  0  0  0  0  0  0  0
  141.3326  150.1986  198.3068 H   0  0  0  0  0  0  0  0  0  0  0  0
  141.4769  149.8325  196.0376 H   0  0  0  0  0  0  0  0  0  0  0  0
  140.9378  151.5102  196.1071 H   0  0  0  0  0  0  0  0  0  0  0  0
  138.7205  151.0620  195.8708 H   0  0  0  0  0  0  0  0  0  0  0  0
  139.8207  152.6790  194.1532 H   0  0  0  0  0  0  0  0  0  0  0  0
  139.1165  152.0831  192.6314 H   0  0  0  0  0  0  0  0  0  0  0  0
  138.1086  152.0739  194.0802 H   0  0  0  0  0  0  0  0  0  0  0  0
  141.5841  149.5395  194.0744 H   0  0  0  0  0  0  0  0  0  0  0  0
  141.5673  151.3884  194.1763 H   0  0  0  0  0  0  0  0  0  0  0  0
  141.2478  150.5655  192.6517 H   0  0  0  0  0  0  0  0  0  0  0  0
  1  2  1  0
  2  3  1  0
  3  4  1  0
  4  5  1  0
  5  6  1  0
  4  7  1  0
  3  8  1  0
  2  9  1  0
  9 10  1  0
 10 11  1  0
 11 12  1  0
 12 13  1  0
 13 14  1  0
 14 15  1  0
 15 16  1  0
 16 17  1  0
 15 18  1  0
 14 19  1  0
 13 20  1  0
 12 21  1  0
  9 22  1  0
 22 23  1  0
 23 24  1  0
 24 25  1  0
 25 26  1  0
 25 27  1  0
 27 28  1  0
 28 29  1  1
 28 30  1  0
 30 31  1  0
 31 32  1  0
 32 33  1  0
 32 34  1  0
 34 35  1  0
 35 36  1  0
 36 37  1  0
 37 38  1  0
 38 39  1  0
 39 40  2  3
 40 41  1  0
 40 42  1  0
 36 43  2  3
 35 44  1  0
 44 45  1  0
 45 46  1  0
 46 47  1  6
 46 48  1  0
 48 49  1  1
 48 50  1  0
 50 51  1  0
 51 52  1  0
 52 53  1  0
 53 54  1  0
 53 55  1  0
 22  7  1  0
 18 11  1  0
 53 24  1  0
 52 28  1  0
 48 30  1  0
 46 34  1  0
  1 56  1  0
  2 57  1  1
  3 58  1  6
  4 59  1  1
  5 60  1  0
  5 61  1  0
  6 62  1  0
  8 63  1  0
  9 64  1  6
 11 65  1  1
 12 66  1  6
 13 67  1  1
 14 68  1  1
 15 69  1  1
 16 70  1  0
 16 71  1  0
 17 72  1  0
 19 73  1  0
 20 74  1  0
 21 75  1  0
 22 76  1  1
 24 77  1  6
 25 78  1  1
 26 79  1  0
 27 80  1  0
 27 81  1  0
 29 82  1  0
 29 83  1  0
 29 84  1  0
 30 85  1  6
 31 86  1  0
 31 87  1  0
 32 88  1  6
 33 89  1  0
 34 90  1  1
 35 91  1  6
 37 92  1  0
 37 93  1  0
 38 94  1  0
 38 95  1  0
 39 96  1  0
 41 97  1  0
 41 98  1  0
 41 99  1  0
 42100  1  0
 42101  1  0
 42102  1  0
 43103  1  0
 43104  1  0
 44105  1  0
 44106  1  0
 45107  1  0
 45108  1  0
 47109  1  0
 47110  1  0
 47111  1  0
 49112  1  0
 49113  1  0
 49114  1  0
 50115  1  0
 50116  1  0
 51117  1  0
 51118  1  0
 52119  1  1
 54120  1  0
 54121  1  0
 54122  1  0
 55123  1  0
 55124  1  0
 55125  1  0
M  END
>  <docking_score>  (1) 
-2.73

$$$$

     RDKit          3D

125130  0  0  0  0  0  0  0  0999 V2000
  142.8399  146.8037  189.8984 O   0  0  0  0  0  0  0  0  0  0  0  0
  142.1168  146.8744  191.0464 C   0  0  1  0  0  0  0  0  0  0  0  0
  142.1817  145.5895  191.8641 C   0  0  1  0  0  0  0  0  0  0  0  0
  141.1692  145.7269  193.0038 C   0  0  1  0  0  0  0  0  0  0  0  0
  141.6642  145.0426  194.2497 C   0  0  0  0  0  0  0  0  0  0  0  0
  141.2668  143.7250  194.3805 O   0  0  0  0  0  0  0  0  0  0  0  0
  140.6903  146.9738  193.1272 O   0  0  0  0  0  0  0  0  0  0  0  0
  141.9341  144.5374  191.0287 O   0  0  0  0  0  0  0  0  0  0  0  0
  142.6205  147.9506  192.0361 C   0  0  1  0  0  0  0  0  0  0  0  0
  142.9149  149.1152  191.3387 O   0  0  0  0  0  0  0  0  0  0  0  0
  142.2351  150.2034  191.8604 C   0  0  1  0  0  0  0  0  0  0  0  0
  143.0828  151.4652  191.8852 C   0  0  1  0  0  0  0  0  0  0  0  0
  142.5163  152.5532  190.9828 C   0  0  2  0  0  0  0  0  0  0  0  0
  141.0893  152.7998  191.4242 C   0  0  1  0  0  0  0  0  0  0  0  0
  140.3554  151.5181  191.6192 C   0  0  1  0  0  0  0  0  0  0  0  0
  139.0295  151.5475  190.8974 C   0  0  0  0  0  0  0  0  0  0  0  0
  139.1498  151.2293  189.5449 O   0  0  0  0  0  0  0  0  0  0  0  0
  141.0508  150.3878  191.1940 O   0  0  0  0  0  0  0  0  0  0  0  0
  141.0201  153.5548  192.5787 O   0  0  0  0  0  0  0  0  0  0  0  0
  142.4986  152.1528  189.6643 O   0  0  0  0  0  0  0  0  0  0  0  0
  143.1150  152.0193  193.1642 O   0  0  0  0  0  0  0  0  0  0  0  0
  141.5910  148.0560  193.0907 C   0  0  2  0  0  0  0  0  0  0  0  0
  142.1033  148.1480  194.3242 O   0  0  0  0  0  0  0  0  0  0  0  0
  141.3978  148.6641  195.3811 C   0  0  1  0  0  0  0  0  0  0  0  0
  140.1130  149.3438  194.9872 C   0  0  2  0  0  0  0  0  0  0  0  0
  140.3464  150.6501  194.4647 O   0  0  0  0  0  0  0  0  0  0  0  0
  139.1470  149.5772  196.1117 C   0  0  0  0  0  0  0  0  0  0  0  0
  138.8470  148.3029  196.8474 C   0  0  2  0  0  0  0  0  0  0  0  0
  138.1657  147.3688  195.9225 C   0  0  0  0  0  0  0  0  0  0  0  0
  137.9372  148.5821  198.0280 C   0  0  1  0  0  0  0  0  0  0  0  0
  136.7871  149.4580  197.7592 C   0  0  0  0  0  0  0  0  0  0  0  0
  136.2581  149.9898  199.1006 C   0  0  1  0  0  0  0  0  0  0  0  0
  135.0378  150.6551  198.8343 O   0  0  0  0  0  0  0  0  0  0  0  0
  135.9568  148.8330  199.9724 C   0  0  2  0  0  0  0  0  0  0  0  0
  135.6297  149.1182  201.3995 C   0  0  1  0  0  0  0  0  0  0  0  0
  134.2248  149.6224  201.5788 C   0  0  0  0  0  0  0  0  0  0  0  0
  133.8708  150.6653  202.5161 C   0  0  0  0  0  0  0  0  0  0  0  0
  132.4488  150.9602  202.8092 C   0  0  0  0  0  0  0  0  0  0  0  0
  131.7708  151.9503  201.9843 C   0  0  0  0  0  0  0  0  0  0  0  0
  130.4901  152.2483  201.9789 C   0  0  0  0  0  0  0  0  0  0  0  0
  129.5185  151.5697  202.8733 C   0  0  0  0  0  0  0  0  0  0  0  0
  129.9347  153.3112  201.0563 C   0  0  0  0  0  0  0  0  0  0  0  0
  133.2964  149.0606  200.8263 C   0  0  0  0  0  0  0  0  0  0  0  0
  135.7585  147.7527  202.0376 C   0  0  0  0  0  0  0  0  0  0  0  0
  136.6453  146.9105  201.1155 C   0  0  0  0  0  0  0  0  0  0  0  0
  137.1402  147.9012  200.1571 C   0  0  2  0  0  0  0  0  0  0  0  0
  138.2321  148.6931  200.8500 C   0  0  0  0  0  0  0  0  0  0  0  0
  137.6013  147.3478  198.8102 C   0  0  1  0  0  0  0  0  0  0  0  0
  136.4317  146.5831  198.2393 C   0  0  0  0  0  0  0  0  0  0  0  0
  138.7325  146.4064  198.9953 C   0  0  0  0  0  0  0  0  0  0  0  0
  139.8200  146.4147  197.9941 C   0  0  0  0  0  0  0  0  0  0  0  0
  140.1202  147.8019  197.4418 C   0  0  1  0  0  0  0  0  0  0  0  0
  141.3548  147.8559  196.6256 C   0  0  0  0  0  0  0  0  0  0  0  0
  142.5019  148.3343  197.5424 C   0  0  0  0  0  0  0  0  0  0  0  0
  141.7898  146.4314  196.2054 C   0  0  0  0  0  0  0  0  0  0  0  0
  142.5284  147.5078  189.2795 H   0  0  0  0  0  0  0  0  0  0  0  0
  141.0523  147.0971  190.8491 H   0  0  0  0  0  0  0  0  0  0  0  0
  143.1864  145.5567  192.3222 H   0  0  0  0  0  0  0  0  0  0  0  0
  140.3016  145.0863  192.6485 H   0  0  0  0  0  0  0  0  0  0  0  0
  141.4073  145.6457  195.1708 H   0  0  0  0  0  0  0  0  0  0  0  0
  142.7924  145.0223  194.2895 H   0  0  0  0  0  0  0  0  0  0  0  0
  142.0647  143.1409  194.3462 H   0  0  0  0  0  0  0  0  0  0  0  0
  141.7378  144.8482  190.1054 H   0  0  0  0  0  0  0  0  0  0  0  0
  143.5778  147.5947  192.4797 H   0  0  0  0  0  0  0  0  0  0  0  0
  141.9899  149.9980  192.9362 H   0  0  0  0  0  0  0  0  0  0  0  0
  144.0843  151.2547  191.5055 H   0  0  0  0  0  0  0  0  0  0  0  0
  143.0757  153.4855  191.1202 H   0  0  0  0  0  0  0  0  0  0  0  0
  140.5567  153.3862  190.6176 H   0  0  0  0  0  0  0  0  0  0  0  0
  140.1189  151.3288  192.6954 H   0  0  0  0  0  0  0  0  0  0  0  0
  138.5657  152.5656  190.9392 H   0  0  0  0  0  0  0  0  0  0  0  0
  138.2821  150.8472  191.3208 H   0  0  0  0  0  0  0  0  0  0  0  0
  138.4855  150.5653  189.2427 H   0  0  0  0  0  0  0  0  0  0  0  0
  141.3871  154.4543  192.3991 H   0  0  0  0  0  0  0  0  0  0  0  0
  142.1052  151.2520  189.5772 H   0  0  0  0  0  0  0  0  0  0  0  0
  142.4387  152.7099  193.2971 H   0  0  0  0  0  0  0  0  0  0  0  0
  140.8782  148.8841  192.7808 H   0  0  0  0  0  0  0  0  0  0  0  0
  142.0590  149.5655  195.6171 H   0  0  0  0  0  0  0  0  0  0  0  0
  139.5883  148.8546  194.1466 H   0  0  0  0  0  0  0  0  0  0  0  0
  140.3635  151.3075  195.1765 H   0  0  0  0  0  0  0  0  0  0  0  0
  139.4362  150.3658  196.8208 H   0  0  0  0  0  0  0  0  0  0  0  0
  138.2094  149.9601  195.6053 H   0  0  0  0  0  0  0  0  0  0  0  0
  138.2623  147.6018  194.8480 H   0  0  0  0  0  0  0  0  0  0  0  0
  138.3715  146.3415  196.2128 H   0  0  0  0  0  0  0  0  0  0  0  0
  137.0514  147.4994  196.0872 H   0  0  0  0  0  0  0  0  0  0  0  0
  138.6069  149.2102  198.6978 H   0  0  0  0  0  0  0  0  0  0  0  0
  135.9922  149.0750  197.1261 H   0  0  0  0  0  0  0  0  0  0  0  0
  137.1694  150.3992  197.2621 H   0  0  0  0  0  0  0  0  0  0  0  0
  136.9238  150.7580  199.4810 H   0  0  0  0  0  0  0  0  0  0  0  0
  135.1970  151.5423  198.4239 H   0  0  0  0  0  0  0  0  0  0  0  0
  135.0589  148.3355  199.5563 H   0  0  0  0  0  0  0  0  0  0  0  0
  136.3208  149.7853  201.9045 H   0  0  0  0  0  0  0  0  0  0  0  0
  134.3289  150.3579  203.5194 H   0  0  0  0  0  0  0  0  0  0  0  0
  134.3601  151.6537  202.3125 H   0  0  0  0  0  0  0  0  0  0  0  0
  132.3205  151.3111  203.8837 H   0  0  0  0  0  0  0  0  0  0  0  0
  131.8141  150.0149  202.8084 H   0  0  0  0  0  0  0  0  0  0  0  0
  132.4116  152.5174  201.2789 H   0  0  0  0  0  0  0  0  0  0  0  0
  128.6417  151.2391  202.3237 H   0  0  0  0  0  0  0  0  0  0  0  0
  129.1758  152.2911  203.6578 H   0  0  0  0  0  0  0  0  0  0  0  0
  130.0372  150.7678  203.4587 H   0  0  0  0  0  0  0  0  0  0  0  0
  130.5153  153.3493  200.1270 H   0  0  0  0  0  0  0  0  0  0  0  0
  129.8979  154.2905  201.5819 H   0  0  0  0  0  0  0  0  0  0  0  0
  128.8654  153.0439  200.8375 H   0  0  0  0  0  0  0  0  0  0  0  0
  132.2561  149.2691  200.8005 H   0  0  0  0  0  0  0  0  0  0  0  0
  133.6028  148.2607  200.1141 H   0  0  0  0  0  0  0  0  0  0  0  0
  136.2086  147.8573  203.0486 H   0  0  0  0  0  0  0  0  0  0  0  0
  134.7692  147.2876  202.0642 H   0  0  0  0  0  0  0  0  0  0  0  0
  137.5159  146.5773  201.7575 H   0  0  0  0  0  0  0  0  0  0  0  0
  136.1741  146.0041  200.7758 H   0  0  0  0  0  0  0  0  0  0  0  0
  137.8909  149.6616  201.2494 H   0  0  0  0  0  0  0  0  0  0  0  0
  139.1185  148.8799  200.2483 H   0  0  0  0  0  0  0  0  0  0  0  0
  138.6176  148.1509  201.7683 H   0  0  0  0  0  0  0  0  0  0  0  0
  135.9530  145.8784  198.9290 H   0  0  0  0  0  0  0  0  0  0  0  0
  135.6354  147.2688  197.8187 H   0  0  0  0  0  0  0  0  0  0  0  0
  136.6861  145.9636  197.3446 H   0  0  0  0  0  0  0  0  0  0  0  0
  139.1176  146.5215  200.0486 H   0  0  0  0  0  0  0  0  0  0  0  0
  138.3405  145.3400  199.0158 H   0  0  0  0  0  0  0  0  0  0  0  0
  139.7457  145.6389  197.2158 H   0  0  0  0  0  0  0  0  0  0  0  0
  140.7629  146.1424  198.5655 H   0  0  0  0  0  0  0  0  0  0  0  0
  140.3252  148.3668  198.3818 H   0  0  0  0  0  0  0  0  0  0  0  0
  142.8028  149.3538  197.3736 H   0  0  0  0  0  0  0  0  0  0  0  0
  142.1879  148.2478  198.6249 H   0  0  0  0  0  0  0  0  0  0  0  0
  143.3608  147.6265  197.4618 H   0  0  0  0  0  0  0  0  0  0  0  0
  141.3696  146.1691  195.2238 H   0  0  0  0  0  0  0  0  0  0  0  0
  141.5169  145.7285  197.0163 H   0  0  0  0  0  0  0  0  0  0  0  0
  142.8863  146.4037  196.1373 H   0  0  0  0  0  0  0  0  0  0  0  0
  1  2  1  0
  2  3  1  0
  3  4  1  0
  4  5  1  0
  5  6  1  0
  4  7  1  0
  3  8  1  0
  2  9  1  0
  9 10  1  0
 10 11  1  0
 11 12  1  0
 12 13  1  0
 13 14  1  0
 14 15  1  0
 15 16  1  0
 16 17  1  0
 15 18  1  0
 14 19  1  0
 13 20  1  0
 12 21  1  0
  9 22  1  0
 22 23  1  0
 23 24  1  0
 24 25  1  0
 25 26  1  0
 25 27  1  0
 27 28  1  0
 28 29  1  6
 28 30  1  0
 30 31  1  0
 31 32  1  0
 32 33  1  0
 32 34  1  0
 34 35  1  0
 35 36  1  0
 36 37  1  0
 37 38  1  0
 38 39  1  0
 39 40  2  3
 40 41  1  0
 40 42  1  0
 36 43  2  3
 35 44  1  0
 44 45  1  0
 45 46  1  0
 46 47  1  1
 46 48  1  0
 48 49  1  6
 48 50  1  0
 50 51  1  0
 51 52  1  0
 52 53  1  0
 53 54  1  0
 53 55  1  0
 22  7  1  0
 18 11  1  0
 53 24  1  0
 52 28  1  0
 48 30  1  0
 46 34  1  0
  1 56  1  0
  2 57  1  6
  3 58  1  1
  4 59  1  6
  5 60  1  0
  5 61  1  0
  6 62  1  0
  8 63  1  0
  9 64  1  1
 11 65  1  1
 12 66  1  6
 13 67  1  6
 14 68  1  6
 15 69  1  1
 16 70  1  0
 16 71  1  0
 17 72  1  0
 19 73  1  0
 20 74  1  0
 21 75  1  0
 22 76  1  6
 24 77  1  1
 25 78  1  6
 26 79  1  0
 27 80  1  0
 27 81  1  0
 29 82  1  0
 29 83  1  0
 29 84  1  0
 30 85  1  1
 31 86  1  0
 31 87  1  0
 32 88  1  1
 33 89  1  0
 34 90  1  6
 35 91  1  1
 37 92  1  0
 37 93  1  0
 38 94  1  0
 38 95  1  0
 39 96  1  0
 41 97  1  0
 41 98  1  0
 41 99  1  0
 42100  1  0
 42101  1  0
 42102  1  0
 43103  1  0
 43104  1  0
 44105  1  0
 44106  1  0
 45107  1  0
 45108  1  0
 47109  1  0
 47110  1  0
 47111  1  0
 49112  1  0
 49113  1  0
 49114  1  0
 50115  1  0
 50116  1  0
 51117  1  0
 51118  1  0
 52119  1  1
 54120  1  0
 54121  1  0
 54122  1  0
 55123  1  0
 55124  1  0
 55125  1  0
M  END
>  <docking_score>  (2) 
-2.5299999999999998

$$$$

     RDKit          3D

125130  0  0  0  0  0  0  0  0999 V2000
  135.3728  149.5949  201.3056 O   0  0  0  0  0  0  0  0  0  0  0  0
  135.6060  150.2926  200.1634 C   0  0  1  0  0  0  0  0  0  0  0  0
  135.2237  151.7635  200.2827 C   0  0  1  0  0  0  0  0  0  0  0  0
  135.3349  152.3748  198.8838 C   0  0  1  0  0  0  0  0  0  0  0  0
  135.8041  153.8032  198.9556 C   0  0  0  0  0  0  0  0  0  0  0  0
  137.0410  154.0333  198.3828 O   0  0  0  0  0  0  0  0  0  0  0  0
  135.9452  151.5627  198.0078 O   0  0  0  0  0  0  0  0  0  0  0  0
  133.9701  151.8378  200.8203 O   0  0  0  0  0  0  0  0  0  0  0  0
  137.0972  150.3454  199.7575 C   0  0  1  0  0  0  0  0  0  0  0  0
  137.6630  149.0873  199.9196 O   0  0  0  0  0  0  0  0  0  0  0  0
  136.8771  148.1011  199.3467 C   0  0  1  0  0  0  0  0  0  0  0  0
  136.9718  148.0860  197.8294 C   0  0  1  0  0  0  0  0  0  0  0  0
  137.5798  146.7915  197.3066 C   0  0  2  0  0  0  0  0  0  0  0  0
  136.7417  145.6541  197.8505 C   0  0  1  0  0  0  0  0  0  0  0  0
  136.4698  145.8312  199.3044 C   0  0  1  0  0  0  0  0  0  0  0  0
  136.7924  144.5674  200.0652 C   0  0  0  0  0  0  0  0  0  0  0  0
  135.6791  143.7437  200.2300 O   0  0  0  0  0  0  0  0  0  0  0  0
  137.1715  146.8797  199.8964 O   0  0  0  0  0  0  0  0  0  0  0  0
  135.5489  145.5088  197.1694 O   0  0  0  0  0  0  0  0  0  0  0  0
  138.8732  146.6283  197.7534 O   0  0  0  0  0  0  0  0  0  0  0  0
  135.7062  148.1655  197.2499 O   0  0  0  0  0  0  0  0  0  0  0  0
  137.1343  150.9144  198.3945 C   0  0  2  0  0  0  0  0  0  0  0  0
  138.1135  151.8109  198.2207 O   0  0  0  0  0  0  0  0  0  0  0  0
  138.9142  151.8247  197.1074 C   0  0  1  0  0  0  0  0  0  0  0  0
  139.9232  150.7077  197.0639 C   0  0  2  0  0  0  0  0  0  0  0  0
  141.0407  150.9734  197.9091 O   0  0  0  0  0  0  0  0  0  0  0  0
  140.5435  150.4639  195.7193 C   0  0  0  0  0  0  0  0  0  0  0  0
  139.4958  150.2482  194.6654 C   0  0  2  0  0  0  0  0  0  0  0  0
  138.7433  149.0146  194.9881 C   0  0  0  0  0  0  0  0  0  0  0  0
  140.1469  150.0892  193.3051 C   0  0  1  0  0  0  0  0  0  0  0  0
  141.3105  149.1919  193.2513 C   0  0  0  0  0  0  0  0  0  0  0  0
  142.0960  149.4925  191.9649 C   0  0  1  0  0  0  0  0  0  0  0  0
  143.0825  148.4864  191.8329 O   0  0  0  0  0  0  0  0  0  0  0  0
  141.1718  149.3670  190.8164 C   0  0  2  0  0  0  0  0  0  0  0  0
  141.6686  149.8211  189.4852 C   0  0  1  0  0  0  0  0  0  0  0  0
  142.5991  148.8271  188.8481 C   0  0  0  0  0  0  0  0  0  0  0  0
  143.0964  147.6548  189.5337 C   0  0  0  0  0  0  0  0  0  0  0  0
  142.9917  146.3169  188.9057 C   0  0  0  0  0  0  0  0  0  0  0  0
  142.5480  145.2047  189.7341 C   0  0  0  0  0  0  0  0  0  0  0  0
  141.3369  144.9814  190.1954 C   0  0  0  0  0  0  0  0  0  0  0  0
  140.2019  145.8936  189.9057 C   0  0  0  0  0  0  0  0  0  0  0  0
  141.0324  143.7699  191.0492 C   0  0  0  0  0  0  0  0  0  0  0  0
  142.9579  149.0708  187.6008 C   0  0  0  0  0  0  0  0  0  0  0  0
  140.3923  149.9038  188.6773 C   0  0  0  0  0  0  0  0  0  0  0  0
  139.2384  150.0298  189.6765 C   0  0  0  0  0  0  0  0  0  0  0  0
  139.9376  150.2404  190.9460 C   0  0  2  0  0  0  0  0  0  0  0  0
  140.4072  151.6820  190.9688 C   0  0  0  0  0  0  0  0  0  0  0  0
  139.1523  149.8742  192.2040 C   0  0  1  0  0  0  0  0  0  0  0  0
  138.7432  148.4296  192.0470 C   0  0  0  0  0  0  0  0  0  0  0  0
  137.9253  150.7010  192.3092 C   0  0  0  0  0  0  0  0  0  0  0  0
  137.5065  151.1632  193.6493 C   0  0  0  0  0  0  0  0  0  0  0  0
  138.6771  151.4913  194.5667 C   0  0  1  0  0  0  0  0  0  0  0  0
  138.2719  152.1760  195.8159 C   0  0  0  0  0  0  0  0  0  0  0  0
  138.4473  153.6945  195.5957 C   0  0  0  0  0  0  0  0  0  0  0  0
  136.7517  152.0125  196.0554 C   0  0  0  0  0  0  0  0  0  0  0  0
  136.0291  148.8596  201.3715 H   0  0  0  0  0  0  0  0  0  0  0  0
  135.0570  149.8686  199.3029 H   0  0  0  0  0  0  0  0  0  0  0  0
  135.9973  152.2413  200.9102 H   0  0  0  0  0  0  0  0  0  0  0  0
  134.2511  152.4438  198.5523 H   0  0  0  0  0  0  0  0  0  0  0  0
  135.7614  154.1892  200.0174 H   0  0  0  0  0  0  0  0  0  0  0  0
  135.0916  154.4993  198.4239 H   0  0  0  0  0  0  0  0  0  0  0  0
  137.5295  154.7021  198.9243 H   0  0  0  0  0  0  0  0  0  0  0  0
  133.3572  151.1787  200.3991 H   0  0  0  0  0  0  0  0  0  0  0  0
  137.6261  151.0254  200.4631 H   0  0  0  0  0  0  0  0  0  0  0  0
  135.7988  148.3206  199.5674 H   0  0  0  0  0  0  0  0  0  0  0  0
  137.6303  148.8852  197.4843 H   0  0  0  0  0  0  0  0  0  0  0  0
  137.5174  146.7609  196.2129 H   0  0  0  0  0  0  0  0  0  0  0  0
  137.3132  144.6876  197.7188 H   0  0  0  0  0  0  0  0  0  0  0  0
  135.3920  146.0489  199.5070 H   0  0  0  0  0  0  0  0  0  0  0  0
  137.1671  144.7966  201.0950 H   0  0  0  0  0  0  0  0  0  0  0  0
  137.5734  143.9486  199.5802 H   0  0  0  0  0  0  0  0  0  0  0  0
  135.4389  143.6021  201.1765 H   0  0  0  0  0  0  0  0  0  0  0  0
  135.7051  145.6670  196.2068 H   0  0  0  0  0  0  0  0  0  0  0  0
  139.0306  147.1579  198.5710 H   0  0  0  0  0  0  0  0  0  0  0  0
  135.2174  148.9684  197.5113 H   0  0  0  0  0  0  0  0  0  0  0  0
  137.1185  150.0421  197.6673 H   0  0  0  0  0  0  0  0  0  0  0  0
  139.5816  152.7124  197.3755 H   0  0  0  0  0  0  0  0  0  0  0  0
  139.5502  149.7525  197.4760 H   0  0  0  0  0  0  0  0  0  0  0  0
  141.2861  151.9101  197.8708 H   0  0  0  0  0  0  0  0  0  0  0  0
  141.2617  151.2280  195.3899 H   0  0  0  0  0  0  0  0  0  0  0  0
  141.1537  149.5196  195.8555 H   0  0  0  0  0  0  0  0  0  0  0  0
  137.7509  149.1643  195.4475 H   0  0  0  0  0  0  0  0  0  0  0  0
  138.7868  148.3225  194.1509 H   0  0  0  0  0  0  0  0  0  0  0  0
  139.3078  148.4957  195.8235 H   0  0  0  0  0  0  0  0  0  0  0  0
  140.5911  151.1214  193.1349 H   0  0  0  0  0  0  0  0  0  0  0  0
  141.1404  148.1283  193.3905 H   0  0  0  0  0  0  0  0  0  0  0  0
  142.0383  149.5097  194.0564 H   0  0  0  0  0  0  0  0  0  0  0  0
  142.6487  150.4196  192.0785 H   0  0  0  0  0  0  0  0  0  0  0  0
  142.6892  147.6431  191.4936 H   0  0  0  0  0  0  0  0  0  0  0  0
  140.9445  148.2897  190.6961 H   0  0  0  0  0  0  0  0  0  0  0  0
  142.1286  150.8040  189.4776 H   0  0  0  0  0  0  0  0  0  0  0  0
  144.2173  147.8298  189.6875 H   0  0  0  0  0  0  0  0  0  0  0  0
  142.7172  147.5388  190.5828 H   0  0  0  0  0  0  0  0  0  0  0  0
  143.9902  145.9966  188.4649 H   0  0  0  0  0  0  0  0  0  0  0  0
  142.3364  146.3390  187.9748 H   0  0  0  0  0  0  0  0  0  0  0  0
  143.3239  144.4608  190.0069 H   0  0  0  0  0  0  0  0  0  0  0  0
  139.3933  145.3693  189.4043 H   0  0  0  0  0  0  0  0  0  0  0  0
  140.5518  146.7099  189.2239 H   0  0  0  0  0  0  0  0  0  0  0  0
  139.9037  146.4370  190.8387 H   0  0  0  0  0  0  0  0  0  0  0  0
  140.2365  143.1716  190.5902 H   0  0  0  0  0  0  0  0  0  0  0  0
  140.7893  144.0867  192.0871 H   0  0  0  0  0  0  0  0  0  0  0  0
  141.9770  143.1667  191.1294 H   0  0  0  0  0  0  0  0  0  0  0  0
  143.6010  148.5005  186.9783 H   0  0  0  0  0  0  0  0  0  0  0  0
  142.5565  149.9822  187.1015 H   0  0  0  0  0  0  0  0  0  0  0  0
  140.4396  150.7834  187.9993 H   0  0  0  0  0  0  0  0  0  0  0  0
  140.2629  148.9625  188.1360 H   0  0  0  0  0  0  0  0  0  0  0  0
  138.7080  150.9918  189.4037 H   0  0  0  0  0  0  0  0  0  0  0  0
  138.4978  149.2546  189.5783 H   0  0  0  0  0  0  0  0  0  0  0  0
  141.4524  151.8019  191.2961 H   0  0  0  0  0  0  0  0  0  0  0  0
  139.7969  152.3562  191.5652 H   0  0  0  0  0  0  0  0  0  0  0  0
  140.4034  152.1352  189.9293 H   0  0  0  0  0  0  0  0  0  0  0  0
  139.4265  147.6993  192.4954 H   0  0  0  0  0  0  0  0  0  0  0  0
  137.7008  148.2339  192.4424 H   0  0  0  0  0  0  0  0  0  0  0  0
  138.6434  148.0978  190.9845 H   0  0  0  0  0  0  0  0  0  0  0  0
  138.0064  151.5473  191.5689 H   0  0  0  0  0  0  0  0  0  0  0  0
  137.0402  150.1230  191.8920 H   0  0  0  0  0  0  0  0  0  0  0  0
  136.7274  150.5529  194.1329 H   0  0  0  0  0  0  0  0  0  0  0  0
  137.0051  152.1684  193.4825 H   0  0  0  0  0  0  0  0  0  0  0  0
  139.2300  152.2382  193.9494 H   0  0  0  0  0  0  0  0  0  0  0  0
  137.5232  154.2265  195.4492 H   0  0  0  0  0  0  0  0  0  0  0  0
  138.9652  154.1534  196.4896 H   0  0  0  0  0  0  0  0  0  0  0  0
  139.1659  153.8676  194.7597 H   0  0  0  0  0  0  0  0  0  0  0  0
  136.1891  152.8079  195.5459 H   0  0  0  0  0  0  0  0  0  0  0  0
  136.5730  151.9605  197.1470 H   0  0  0  0  0  0  0  0  0  0  0  0
  136.4337  151.0418  195.6502 H   0  0  0  0  0  0  0  0  0  0  0  0
  1  2  1  0
  2  3  1  0
  3  4  1  0
  4  5  1  0
  5  6  1  0
  4  7  1  0
  3  8  1  0
  2  9  1  0
  9 10  1  0
 10 11  1  0
 11 12  1  0
 12 13  1  0
 13 14  1  0
 14 15  1  0
 15 16  1  0
 16 17  1  0
 15 18  1  0
 14 19  1  0
 13 20  1  0
 12 21  1  0
  9 22  1  0
 22 23  1  0
 23 24  1  0
 24 25  1  0
 25 26  1  0
 25 27  1  0
 27 28  1  0
 28 29  1  1
 28 30  1  0
 30 31  1  0
 31 32  1  0
 32 33  1  0
 32 34  1  0
 34 35  1  0
 35 36  1  0
 36 37  1  0
 37 38  1  0
 38 39  1  0
 39 40  2  3
 40 41  1  0
 40 42  1  0
 36 43  2  3
 35 44  1  0
 44 45  1  0
 45 46  1  0
 46 47  1  1
 46 48  1  0
 48 49  1  6
 48 50  1  0
 50 51  1  0
 51 52  1  0
 52 53  1  0
 53 54  1  0
 53 55  1  0
 22  7  1  0
 18 11  1  0
 53 24  1  0
 52 28  1  0
 48 30  1  0
 46 34  1  0
  1 56  1  0
  2 57  1  6
  3 58  1  1
  4 59  1  6
  5 60  1  0
  5 61  1  0
  6 62  1  0
  8 63  1  0
  9 64  1  1
 11 65  1  6
 12 66  1  6
 13 67  1  6
 14 68  1  1
 15 69  1  6
 16 70  1  0
 16 71  1  0
 17 72  1  0
 19 73  1  0
 20 74  1  0
 21 75  1  0
 22 76  1  6
 24 77  1  1
 25 78  1  1
 26 79  1  0
 27 80  1  0
 27 81  1  0
 29 82  1  0
 29 83  1  0
 29 84  1  0
 30 85  1  6
 31 86  1  0
 31 87  1  0
 32 88  1  1
 33 89  1  0
 34 90  1  6
 35 91  1  1
 37 92  1  0
 37 93  1  0
 38 94  1  0
 38 95  1  0
 39 96  1  0
 41 97  1  0
 41 98  1  0
 41 99  1  0
 42100  1  0
 42101  1  0
 42102  1  0
 43103  1  0
 43104  1  0
 44105  1  0
 44106  1  0
 45107  1  0
 45108  1  0
 47109  1  0
 47110  1  0
 47111  1  0
 49112  1  0
 49113  1  0
 49114  1  0
 50115  1  0
 50116  1  0
 51117  1  0
 51118  1  0
 52119  1  6
 54120  1  0
 54121  1  0
 54122  1  0
 55123  1  0
 55124  1  0
 55125  1  0
M  END
>  <docking_score>  (3) 
-2.2450000000000001

$$$$
