
     RDKit          3D

 36 38  0  0  0  0  0  0  0  0999 V2000
  118.8335  153.9311  178.7469 O   0  0  0  0  0  0  0  0  0  0  0  0
  117.8431  154.7002  179.3164 C   0  0  1  0  0  0  0  0  0  0  0  0
  116.4588  154.2477  178.9233 C   0  0  2  0  0  0  0  0  0  0  0  0
  116.0193  154.9549  177.6883 C   0  0  0  0  0  0  0  0  0  0  0  0
  116.3566  156.2686  177.4799 C   0  0  0  0  0  0  0  0  0  0  0  0
  115.9542  156.9267  176.3430 C   0  0  0  0  0  0  0  0  0  0  0  0
  116.2854  158.2605  176.1110 O   0  0  0  0  0  0  0  0  0  0  0  0
  115.1901  156.2315  175.3953 C   0  0  0  0  0  0  0  0  0  0  0  0
  114.8113  156.9427  174.2682 O   0  0  0  0  0  0  0  0  0  0  0  0
  114.8398  154.9186  175.5799 C   0  0  0  0  0  0  0  0  0  0  0  0
  114.0891  154.2201  174.6585 O   0  0  0  0  0  0  0  0  0  0  0  0
  115.2687  154.2821  176.7511 C   0  0  0  0  0  0  0  0  0  0  0  0
  115.5067  154.4960  179.9381 O   0  0  0  0  0  0  0  0  0  0  0  0
  115.7235  155.4275  180.9554 C   0  0  0  0  0  0  0  0  0  0  0  0
  114.7138  156.2313  181.4396 C   0  0  0  0  0  0  0  0  0  0  0  0
  114.9763  157.1367  182.4455 C   0  0  0  0  0  0  0  0  0  0  0  0
  113.9851  157.9719  182.9676 O   0  0  0  0  0  0  0  0  0  0  0  0
  116.2669  157.1900  182.9243 C   0  0  0  0  0  0  0  0  0  0  0  0
  117.2948  156.3791  182.4388 C   0  0  0  0  0  0  0  0  0  0  0  0
  118.5735  156.4596  182.9414 O   0  0  0  0  0  0  0  0  0  0  0  0
  117.0314  155.4885  181.4475 C   0  0  0  0  0  0  0  0  0  0  0  0
  117.9991  154.5758  180.8394 C   0  0  0  0  0  0  0  0  0  0  0  0
  119.2755  154.4464  178.0334 H   0  0  0  0  0  0  0  0  0  0  0  0
  117.9621  155.7713  179.0740 H   0  0  0  0  0  0  0  0  0  0  0  0
  116.4666  153.1527  178.7208 H   0  0  0  0  0  0  0  0  0  0  0  0
  116.9505  156.8079  178.2170 H   0  0  0  0  0  0  0  0  0  0  0  0
  115.7413  158.8031  175.4695 H   0  0  0  0  0  0  0  0  0  0  0  0
  114.4953  157.8905  174.3522 H   0  0  0  0  0  0  0  0  0  0  0  0
  113.2578  154.5638  174.2199 H   0  0  0  0  0  0  0  0  0  0  0  0
  114.9901  153.2528  176.8889 H   0  0  0  0  0  0  0  0  0  0  0  0
  113.7087  156.1615  181.0380 H   0  0  0  0  0  0  0  0  0  0  0  0
  114.1223  158.3759  183.9020 H   0  0  0  0  0  0  0  0  0  0  0  0
  116.5082  157.8905  183.7151 H   0  0  0  0  0  0  0  0  0  0  0  0
  119.3180  157.0215  182.6261 H   0  0  0  0  0  0  0  0  0  0  0  0
  119.0385  154.6946  181.1201 H   0  0  0  0  0  0  0  0  0  0  0  0
  117.6962  153.5087  181.0544 H   0  0  0  0  0  0  0  0  0  0  0  0
  1  2  1  0
  2  3  1  0
  3  4  1  0
  4  5  2  0
  5  6  1  0
  6  7  1  0
  6  8  2  0
  8  9  1  0
  8 10  1  0
 10 11  1  0
 10 12  2  0
  3 13  1  0
 13 14  1  0
 14 15  2  0
 15 16  1  0
 16 17  1  0
 16 18  2  0
 18 19  1  0
 19 20  1  0
 19 21  2  0
 21 22  1  0
 22  2  1  0
 12  4  1  0
 21 14  1  0
  1 23  1  0
  2 24  1  1
  3 25  1  6
  5 26  1  0
  7 27  1  0
  9 28  1  0
 11 29  1  0
 12 30  1  0
 15 31  1  0
 17 32  1  0
 18 33  1  0
 20 34  1  0
 22 35  1  0
 22 36  1  0
M  END
>  <docking_score>  (1) 
-6.3369999999999997

$$$$

     RDKit          3D

 36 38  0  0  0  0  0  0  0  0999 V2000
  119.9061  154.5009  177.4931 O   0  0  0  0  0  0  0  0  0  0  0  0
  118.8655  153.8491  176.8696 C   0  0  1  0  0  0  0  0  0  0  0  0
  117.6179  154.6932  176.7880 C   0  0  2  0  0  0  0  0  0  0  0  0
  116.7695  154.4725  177.9922 C   0  0  0  0  0  0  0  0  0  0  0  0
  117.3330  154.4245  179.2425 C   0  0  0  0  0  0  0  0  0  0  0  0
  116.5561  154.2211  180.3573 C   0  0  0  0  0  0  0  0  0  0  0  0
  117.1073  154.1688  181.6364 O   0  0  0  0  0  0  0  0  0  0  0  0
  115.1725  154.0629  180.1961 C   0  0  0  0  0  0  0  0  0  0  0  0
  114.4371  153.8606  181.3527 O   0  0  0  0  0  0  0  0  0  0  0  0
  114.5851  154.1067  178.9578 C   0  0  0  0  0  0  0  0  0  0  0  0
  113.2266  153.9529  178.7812 O   0  0  0  0  0  0  0  0  0  0  0  0
  115.4100  154.3158  177.8458 C   0  0  0  0  0  0  0  0  0  0  0  0
  116.8454  154.3963  175.6420 O   0  0  0  0  0  0  0  0  0  0  0  0
  116.9784  153.1965  174.9405 C   0  0  0  0  0  0  0  0  0  0  0  0
  115.8935  152.5401  174.4000 C   0  0  0  0  0  0  0  0  0  0  0  0
  116.0747  151.3575  173.7153 C   0  0  0  0  0  0  0  0  0  0  0  0
  115.0054  150.6572  173.1505 O   0  0  0  0  0  0  0  0  0  0  0  0
  117.3636  150.8838  173.6058 C   0  0  0  0  0  0  0  0  0  0  0  0
  118.4674  151.5430  174.1507 C   0  0  0  0  0  0  0  0  0  0  0  0
  119.7421  151.0402  174.0216 O   0  0  0  0  0  0  0  0  0  0  0  0
  118.2840  152.7081  174.8245 C   0  0  0  0  0  0  0  0  0  0  0  0
  119.3368  153.5099  175.4476 C   0  0  0  0  0  0  0  0  0  0  0  0
  119.8655  155.4606  177.2757 H   0  0  0  0  0  0  0  0  0  0  0  0
  118.6276  152.8884  177.3602 H   0  0  0  0  0  0  0  0  0  0  0  0
  117.8971  155.7702  176.7438 H   0  0  0  0  0  0  0  0  0  0  0  0
  118.4084  154.5477  179.3666 H   0  0  0  0  0  0  0  0  0  0  0  0
  117.0450  154.9671  182.2370 H   0  0  0  0  0  0  0  0  0  0  0  0
  114.8417  154.0574  182.2487 H   0  0  0  0  0  0  0  0  0  0  0  0
  112.8009  153.4617  178.0202 H   0  0  0  0  0  0  0  0  0  0  0  0
  114.9423  154.3488  176.8781 H   0  0  0  0  0  0  0  0  0  0  0  0
  114.8922  152.9433  174.5062 H   0  0  0  0  0  0  0  0  0  0  0  0
  114.5745  149.8962  173.6894 H   0  0  0  0  0  0  0  0  0  0  0  0
  117.5421  149.9567  173.0740 H   0  0  0  0  0  0  0  0  0  0  0  0
  120.4999  151.1336  174.6432 H   0  0  0  0  0  0  0  0  0  0  0  0
  120.3335  153.0865  175.4746 H   0  0  0  0  0  0  0  0  0  0  0  0
  119.3955  154.5159  174.9366 H   0  0  0  0  0  0  0  0  0  0  0  0
  1  2  1  0
  2  3  1  0
  3  4  1  0
  4  5  2  0
  5  6  1  0
  6  7  1  0
  6  8  2  0
  8  9  1  0
  8 10  1  0
 10 11  1  0
 10 12  2  0
  3 13  1  0
 13 14  1  0
 14 15  2  0
 15 16  1  0
 16 17  1  0
 16 18  2  0
 18 19  1  0
 19 20  1  0
 19 21  2  0
 21 22  1  0
 22  2  1  0
 12  4  1  0
 21 14  1  0
  1 23  1  0
  2 24  1  1
  3 25  1  6
  5 26  1  0
  7 27  1  0
  9 28  1  0
 11 29  1  0
 12 30  1  0
 15 31  1  0
 17 32  1  0
 18 33  1  0
 20 34  1  0
 22 35  1  0
 22 36  1  0
M  END
>  <docking_score>  (2) 
-5.5389999999999997

$$$$

     RDKit          3D

 36 38  0  0  0  0  0  0  0  0999 V2000
  113.1270  152.9568  176.3759 O   0  0  0  0  0  0  0  0  0  0  0  0
  114.2304  153.3039  177.1234 C   0  0  1  0  0  0  0  0  0  0  0  0
  115.0913  154.3380  176.4414 C   0  0  2  0  0  0  0  0  0  0  0  0
  116.1223  153.6716  175.5978 C   0  0  0  0  0  0  0  0  0  0  0  0
  117.4538  153.9559  175.7698 C   0  0  0  0  0  0  0  0  0  0  0  0
  118.4097  153.3450  174.9948 C   0  0  0  0  0  0  0  0  0  0  0  0
  119.7672  153.6188  175.1525 O   0  0  0  0  0  0  0  0  0  0  0  0
  118.0012  152.4225  174.0214 C   0  0  0  0  0  0  0  0  0  0  0  0
  119.0058  151.8364  173.2686 O   0  0  0  0  0  0  0  0  0  0  0  0
  116.6772  152.1212  173.8298 C   0  0  0  0  0  0  0  0  0  0  0  0
  116.2581  151.2169  172.8774 O   0  0  0  0  0  0  0  0  0  0  0  0
  115.7326  152.7643  174.6390 C   0  0  0  0  0  0  0  0  0  0  0  0
  115.7519  155.1782  177.3664 O   0  0  0  0  0  0  0  0  0  0  0  0
  115.9400  154.8181  178.7022 C   0  0  0  0  0  0  0  0  0  0  0  0
  117.0976  155.1213  179.3863 C   0  0  0  0  0  0  0  0  0  0  0  0
  117.2374  154.7447  180.7050 C   0  0  0  0  0  0  0  0  0  0  0  0
  118.3921  155.0301  181.4385 O   0  0  0  0  0  0  0  0  0  0  0  0
  116.1852  154.0683  181.2821 C   0  0  0  0  0  0  0  0  0  0  0  0
  115.0097  153.7575  180.5955 C   0  0  0  0  0  0  0  0  0  0  0  0
  113.9781  153.0799  181.2045 O   0  0  0  0  0  0  0  0  0  0  0  0
  114.8765  154.1306  179.2962 C   0  0  0  0  0  0  0  0  0  0  0  0
  113.7106  153.8781  178.4498 C   0  0  0  0  0  0  0  0  0  0  0  0
  112.9473  153.6637  175.7140 H   0  0  0  0  0  0  0  0  0  0  0  0
  114.8472  152.4244  177.3810 H   0  0  0  0  0  0  0  0  0  0  0  0
  114.4583  154.9790  175.7869 H   0  0  0  0  0  0  0  0  0  0  0  0
  117.7701  154.6730  176.5266 H   0  0  0  0  0  0  0  0  0  0  0  0
  120.3399  153.7721  174.3460 H   0  0  0  0  0  0  0  0  0  0  0  0
  119.3072  152.2610  172.4118 H   0  0  0  0  0  0  0  0  0  0  0  0
  116.5526  151.2162  171.9209 H   0  0  0  0  0  0  0  0  0  0  0  0
  114.6965  152.5231  174.4828 H   0  0  0  0  0  0  0  0  0  0  0  0
  117.9059  155.6557  178.8990 H   0  0  0  0  0  0  0  0  0  0  0  0
  118.9279  155.8751  181.2059 H   0  0  0  0  0  0  0  0  0  0  0  0
  116.2616  153.7572  182.3173 H   0  0  0  0  0  0  0  0  0  0  0  0
  113.1840  153.4528  181.6516 H   0  0  0  0  0  0  0  0  0  0  0  0
  112.9320  153.2423  178.8534 H   0  0  0  0  0  0  0  0  0  0  0  0
  113.2422  154.8622  178.1516 H   0  0  0  0  0  0  0  0  0  0  0  0
  1  2  1  0
  2  3  1  0
  3  4  1  0
  4  5  2  0
  5  6  1  0
  6  7  1  0
  6  8  2  0
  8  9  1  0
  8 10  1  0
 10 11  1  0
 10 12  2  0
  3 13  1  0
 13 14  1  0
 14 15  2  0
 15 16  1  0
 16 17  1  0
 16 18  2  0
 18 19  1  0
 19 20  1  0
 19 21  2  0
 21 22  1  0
 22  2  1  0
 12  4  1  0
 21 14  1  0
  1 23  1  0
  2 24  1  1
  3 25  1  6
  5 26  1  0
  7 27  1  0
  9 28  1  0
 11 29  1  0
 12 30  1  0
 15 31  1  0
 17 32  1  0
 18 33  1  0
 20 34  1  0
 22 35  1  0
 22 36  1  0
M  END
>  <docking_score>  (3) 
-5.202

$$$$
