
     RDKit          3D

 59 61  0  0  0  0  0  0  0  0999 V2000
  136.9716  153.6232  198.2819 O   0  0  0  0  0  0  0  0  0  0  0  0
  137.1274  152.7533  197.2130 C   0  0  1  0  0  0  0  0  0  0  0  0
  138.4689  152.0612  197.2481 C   0  0  2  0  0  0  0  0  0  0  0  0
  139.5486  152.8294  196.9297 O   0  0  0  0  0  0  0  0  0  0  0  0
  139.3967  153.7517  195.9342 C   0  0  1  0  0  0  0  0  0  0  0  0
  139.7707  155.0616  196.5379 C   0  0  0  0  0  0  0  0  0  0  0  0
  140.0557  156.0993  197.0195 N   0  0  0  0  0  0  0  0  0  0  0  0
  140.1676  153.5268  194.6996 C   0  0  0  0  0  0  0  0  0  0  0  0
  140.9722  154.5782  194.2237 C   0  0  0  0  0  0  0  0  0  0  0  0
  141.6997  154.4395  193.0700 C   0  0  0  0  0  0  0  0  0  0  0  0
  141.6895  153.3005  192.3246 C   0  0  0  0  0  0  0  0  0  0  0  0
  140.9021  152.2299  192.7633 C   0  0  0  0  0  0  0  0  0  0  0  0
  140.1749  152.3931  193.9342 C   0  0  0  0  0  0  0  0  0  0  0  0
  138.4521  151.0177  196.2674 O   0  0  0  0  0  0  0  0  0  0  0  0
  137.6386  149.9794  196.6963 C   0  0  2  0  0  0  0  0  0  0  0  0
  137.6693  148.8091  195.7632 C   0  0  0  0  0  0  0  0  0  0  0  0
  138.4538  148.8233  194.6887 O   0  0  0  0  0  0  0  0  0  0  0  0
  138.0370  148.9209  193.4258 C   0  0  1  0  0  0  0  0  0  0  0  0
  137.0504  150.0759  193.2525 C   0  0  1  0  0  0  0  0  0  0  0  0
  136.7661  150.3216  191.8104 C   0  0  2  0  0  0  0  0  0  0  0  0
  137.3643  149.3273  190.8628 C   0  0  1  0  0  0  0  0  0  0  0  0
  138.7117  148.8742  191.2744 C   0  0  1  0  0  0  0  0  0  0  0  0
  139.7617  149.2628  190.2282 C   0  0  0  0  0  0  0  0  0  0  0  0
  139.5692  150.5338  189.7430 O   0  0  0  0  0  0  0  0  0  0  0  0
  139.1048  149.2686  192.5311 O   0  0  0  0  0  0  0  0  0  0  0  0
  136.5086  148.2125  190.6987 O   0  0  0  0  0  0  0  0  0  0  0  0
  137.0806  151.6322  191.4048 O   0  0  0  0  0  0  0  0  0  0  0  0
  135.8822  149.8518  193.9442 O   0  0  0  0  0  0  0  0  0  0  0  0
  136.3569  150.3419  197.3096 C   0  0  1  0  0  0  0  0  0  0  0  0
  136.4181  149.9938  198.7059 O   0  0  0  0  0  0  0  0  0  0  0  0
  135.9916  151.7860  197.1916 C   0  0  2  0  0  0  0  0  0  0  0  0
  135.1726  152.0272  196.1002 O   0  0  0  0  0  0  0  0  0  0  0  0
  137.8485  154.1087  198.3692 H   0  0  0  0  0  0  0  0  0  0  0  0
  137.0379  153.4002  196.2944 H   0  0  0  0  0  0  0  0  0  0  0  0
  138.5928  151.5306  198.2032 H   0  0  0  0  0  0  0  0  0  0  0  0
  138.2851  153.7794  195.7050 H   0  0  0  0  0  0  0  0  0  0  0  0
  140.9872  155.4829  194.8020 H   0  0  0  0  0  0  0  0  0  0  0  0
  142.3275  155.2690  192.7022 H   0  0  0  0  0  0  0  0  0  0  0  0
  142.2512  153.1628  191.4126 H   0  0  0  0  0  0  0  0  0  0  0  0
  140.8780  151.3172  192.1913 H   0  0  0  0  0  0  0  0  0  0  0  0
  139.5477  151.5658  194.2927 H   0  0  0  0  0  0  0  0  0  0  0  0
  138.2788  149.5740  197.6031 H   0  0  0  0  0  0  0  0  0  0  0  0
  136.5954  148.6193  195.4614 H   0  0  0  0  0  0  0  0  0  0  0  0
  137.9256  147.8802  196.3783 H   0  0  0  0  0  0  0  0  0  0  0  0
  137.6035  148.0251  192.9573 H   0  0  0  0  0  0  0  0  0  0  0  0
  137.5257  151.0142  193.6535 H   0  0  0  0  0  0  0  0  0  0  0  0
  135.6431  150.2550  191.6638 H   0  0  0  0  0  0  0  0  0  0  0  0
  137.4615  149.7808  189.8282 H   0  0  0  0  0  0  0  0  0  0  0  0
  138.7288  147.7493  191.2786 H   0  0  0  0  0  0  0  0  0  0  0  0
  139.6449  148.5402  189.3966 H   0  0  0  0  0  0  0  0  0  0  0  0
  140.7548  149.0956  190.6736 H   0  0  0  0  0  0  0  0  0  0  0  0
  140.1286  151.2288  190.1772 H   0  0  0  0  0  0  0  0  0  0  0  0
  135.5879  148.5255  190.5150 H   0  0  0  0  0  0  0  0  0  0  0  0
  137.7814  151.5106  190.7013 H   0  0  0  0  0  0  0  0  0  0  0  0
  136.0262  149.4501  194.8380 H   0  0  0  0  0  0  0  0  0  0  0  0
  135.4641  149.7559  196.9747 H   0  0  0  0  0  0  0  0  0  0  0  0
  136.8853  149.1247  198.8075 H   0  0  0  0  0  0  0  0  0  0  0  0
  135.3597  152.0050  198.1219 H   0  0  0  0  0  0  0  0  0  0  0  0
  134.5081  151.3131  195.9967 H   0  0  0  0  0  0  0  0  0  0  0  0
  1  2  1  0
  2  3  1  0
  3  4  1  0
  4  5  1  0
  5  6  1  0
  6  7  3  0
  5  8  1  0
  8  9  2  0
  9 10  1  0
 10 11  2  0
 11 12  1  0
 12 13  2  0
  3 14  1  0
 14 15  1  0
 15 16  1  0
 16 17  1  0
 17 18  1  0
 18 19  1  0
 19 20  1  0
 20 21  1  0
 21 22  1  0
 22 23  1  0
 23 24  1  0
 22 25  1  0
 21 26  1  0
 20 27  1  0
 19 28  1  0
 15 29  1  0
 29 30  1  0
 29 31  1  0
 31 32  1  0
 31  2  1  0
 13  8  1  0
 25 18  1  0
  1 33  1  0
  2 34  1  6
  3 35  1  1
  5 36  1  6
  9 37  1  0
 10 38  1  0
 11 39  1  0
 12 40  1  0
 13 41  1  0
 15 42  1  1
 16 43  1  0
 16 44  1  0
 18 45  1  6
 19 46  1  1
 20 47  1  1
 21 48  1  6
 22 49  1  1
 23 50  1  0
 23 51  1  0
 24 52  1  0
 26 53  1  0
 27 54  1  0
 28 55  1  0
 29 56  1  6
 30 57  1  0
 31 58  1  1
 32 59  1  0
M  END
>  <docking_score>  (1) 
-4.7350000000000003

$$$$

     RDKit          3D

 59 61  0  0  0  0  0  0  0  0999 V2000
  138.3341  152.4163  195.3118 O   0  0  0  0  0  0  0  0  0  0  0  0
  137.0312  151.9668  195.1579 C   0  0  1  0  0  0  0  0  0  0  0  0
  136.9507  150.8108  194.1899 C   0  0  2  0  0  0  0  0  0  0  0  0
  137.1228  151.1179  192.8733 O   0  0  0  0  0  0  0  0  0  0  0  0
  137.6278  150.1456  192.0583 C   0  0  1  0  0  0  0  0  0  0  0  0
  136.5008  149.7357  191.1740 C   0  0  0  0  0  0  0  0  0  0  0  0
  135.6056  149.4037  190.4823 N   0  0  0  0  0  0  0  0  0  0  0  0
  138.8016  150.5065  191.2453 C   0  0  0  0  0  0  0  0  0  0  0  0
  138.9640  149.8684  190.0019 C   0  0  0  0  0  0  0  0  0  0  0  0
  140.0451  150.1458  189.2058 C   0  0  0  0  0  0  0  0  0  0  0  0
  141.0121  151.0361  189.5597 C   0  0  0  0  0  0  0  0  0  0  0  0
  140.8882  151.6934  190.7891 C   0  0  0  0  0  0  0  0  0  0  0  0
  139.7852  151.3971  191.5777 C   0  0  0  0  0  0  0  0  0  0  0  0
  135.6327  150.2568  194.2739 O   0  0  0  0  0  0  0  0  0  0  0  0
  135.4828  149.5736  195.4717 C   0  0  2  0  0  0  0  0  0  0  0  0
  134.1614  148.8767  195.5683 C   0  0  0  0  0  0  0  0  0  0  0  0
  133.9895  147.6769  195.0197 O   0  0  0  0  0  0  0  0  0  0  0  0
  134.6810  146.5785  195.3253 C   0  0  1  0  0  0  0  0  0  0  0  0
  134.2773  145.4011  194.4373 C   0  0  1  0  0  0  0  0  0  0  0  0
  135.2038  144.2493  194.6265 C   0  0  2  0  0  0  0  0  0  0  0  0
  136.2161  144.4162  195.7182 C   0  0  1  0  0  0  0  0  0  0  0  0
  136.7388  145.7973  195.8161 C   0  0  1  0  0  0  0  0  0  0  0  0
  138.2462  145.8312  195.5426 C   0  0  0  0  0  0  0  0  0  0  0  0
  138.7900  147.0722  195.7705 O   0  0  0  0  0  0  0  0  0  0  0  0
  136.0818  146.7290  195.0483 O   0  0  0  0  0  0  0  0  0  0  0  0
  135.6818  144.0121  196.9644 O   0  0  0  0  0  0  0  0  0  0  0  0
  135.8347  143.8511  193.4330 O   0  0  0  0  0  0  0  0  0  0  0  0
  132.9760  145.0174  194.6664 O   0  0  0  0  0  0  0  0  0  0  0  0
  136.0186  150.2115  196.6784 C   0  0  1  0  0  0  0  0  0  0  0  0
  137.1401  149.4306  197.1335 O   0  0  0  0  0  0  0  0  0  0  0  0
  136.4632  151.6263  196.4950 C   0  0  2  0  0  0  0  0  0  0  0  0
  135.4734  152.5312  196.8437 O   0  0  0  0  0  0  0  0  0  0  0  0
  138.8652  151.9697  194.5834 H   0  0  0  0  0  0  0  0  0  0  0  0
  136.4601  152.8552  194.7644 H   0  0  0  0  0  0  0  0  0  0  0  0
  137.6072  149.9945  194.5243 H   0  0  0  0  0  0  0  0  0  0  0  0
  137.8733  149.2693  192.7372 H   0  0  0  0  0  0  0  0  0  0  0  0
  138.2087  149.1623  189.7122 H   0  0  0  0  0  0  0  0  0  0  0  0
  140.1665  149.6404  188.2325 H   0  0  0  0  0  0  0  0  0  0  0  0
  141.8739  151.2743  188.9540 H   0  0  0  0  0  0  0  0  0  0  0  0
  141.6399  152.4035  191.0913 H   0  0  0  0  0  0  0  0  0  0  0  0
  139.6722  151.8994  192.5479 H   0  0  0  0  0  0  0  0  0  0  0  0
  136.2150  148.6648  195.2862 H   0  0  0  0  0  0  0  0  0  0  0  0
  133.3924  149.6040  195.1684 H   0  0  0  0  0  0  0  0  0  0  0  0
  133.8866  148.8040  196.6757 H   0  0  0  0  0  0  0  0  0  0  0  0
  134.6708  146.2396  196.3716 H   0  0  0  0  0  0  0  0  0  0  0  0
  134.3696  145.7178  193.3611 H   0  0  0  0  0  0  0  0  0  0  0  0
  134.5790  143.3477  194.9162 H   0  0  0  0  0  0  0  0  0  0  0  0
  137.1019  143.7312  195.5397 H   0  0  0  0  0  0  0  0  0  0  0  0
  136.6433  146.1448  196.8818 H   0  0  0  0  0  0  0  0  0  0  0  0
  138.3669  145.5782  194.4708 H   0  0  0  0  0  0  0  0  0  0  0  0
  138.7100  145.0212  196.1271 H   0  0  0  0  0  0  0  0  0  0  0  0
  139.7795  147.1058  195.7055 H   0  0  0  0  0  0  0  0  0  0  0  0
  135.3921  144.8087  197.4750 H   0  0  0  0  0  0  0  0  0  0  0  0
  135.0848  143.7588  192.7772 H   0  0  0  0  0  0  0  0  0  0  0  0
  132.8995  144.1407  195.1211 H   0  0  0  0  0  0  0  0  0  0  0  0
  135.3579  150.1966  197.5816 H   0  0  0  0  0  0  0  0  0  0  0  0
  137.9374  149.6508  196.5858 H   0  0  0  0  0  0  0  0  0  0  0  0
  137.3096  151.7679  197.2541 H   0  0  0  0  0  0  0  0  0  0  0  0
  134.5988  152.2395  196.5087 H   0  0  0  0  0  0  0  0  0  0  0  0
  1  2  1  0
  2  3  1  0
  3  4  1  0
  4  5  1  0
  5  6  1  0
  6  7  3  0
  5  8  1  0
  8  9  2  0
  9 10  1  0
 10 11  2  0
 11 12  1  0
 12 13  2  0
  3 14  1  0
 14 15  1  0
 15 16  1  0
 16 17  1  0
 17 18  1  0
 18 19  1  0
 19 20  1  0
 20 21  1  0
 21 22  1  0
 22 23  1  0
 23 24  1  0
 22 25  1  0
 21 26  1  0
 20 27  1  0
 19 28  1  0
 15 29  1  0
 29 30  1  0
 29 31  1  0
 31 32  1  0
 31  2  1  0
 13  8  1  0
 25 18  1  0
  1 33  1  0
  2 34  1  6
  3 35  1  1
  5 36  1  1
  9 37  1  0
 10 38  1  0
 11 39  1  0
 12 40  1  0
 13 41  1  0
 15 42  1  6
 16 43  1  0
 16 44  1  0
 18 45  1  1
 19 46  1  6
 20 47  1  1
 21 48  1  6
 22 49  1  1
 23 50  1  0
 23 51  1  0
 24 52  1  0
 26 53  1  0
 27 54  1  0
 28 55  1  0
 29 56  1  1
 30 57  1  0
 31 58  1  1
 32 59  1  0
M  END
>  <docking_score>  (2) 
-4.6580000000000004

$$$$

     RDKit          3D

 59 61  0  0  0  0  0  0  0  0999 V2000
  140.4015  150.4267  190.2981 O   0  0  0  0  0  0  0  0  0  0  0  0
  139.6441  149.9328  191.3496 C   0  0  1  0  0  0  0  0  0  0  0  0
  139.7788  150.7902  192.5851 C   0  0  2  0  0  0  0  0  0  0  0  0
  140.9663  150.7041  193.2482 O   0  0  0  0  0  0  0  0  0  0  0  0
  141.6485  151.8648  193.4761 C   0  0  1  0  0  0  0  0  0  0  0  0
  141.9050  152.4522  192.1310 C   0  0  0  0  0  0  0  0  0  0  0  0
  142.1176  152.9105  191.0657 N   0  0  0  0  0  0  0  0  0  0  0  0
  140.9939  152.8585  194.3440 C   0  0  0  0  0  0  0  0  0  0  0  0
  140.6538  152.4691  195.6525 C   0  0  0  0  0  0  0  0  0  0  0  0
  140.0256  153.3406  196.5041 C   0  0  0  0  0  0  0  0  0  0  0  0
  139.6952  154.6118  196.1461 C   0  0  0  0  0  0  0  0  0  0  0  0
  140.0163  155.0394  194.8527 C   0  0  0  0  0  0  0  0  0  0  0  0
  140.6527  154.1400  194.0086 C   0  0  0  0  0  0  0  0  0  0  0  0
  138.7925  150.3596  193.5300 O   0  0  0  0  0  0  0  0  0  0  0  0
  137.5307  150.7504  193.1069 C   0  0  2  0  0  0  0  0  0  0  0  0
  136.4679  150.4261  194.1103 C   0  0  0  0  0  0  0  0  0  0  0  0
  136.4528  151.0294  195.2960 O   0  0  0  0  0  0  0  0  0  0  0  0
  136.3743  150.4154  196.4772 C   0  0  1  0  0  0  0  0  0  0  0  0
  137.7191  150.4327  197.2043 C   0  0  1  0  0  0  0  0  0  0  0  0
  137.5722  149.9519  198.6072 C   0  0  2  0  0  0  0  0  0  0  0  0
  136.2156  149.4254  198.9633 C   0  0  1  0  0  0  0  0  0  0  0  0
  135.1152  150.1893  198.3343 C   0  0  1  0  0  0  0  0  0  0  0  0
  134.2299  150.8475  199.3979 C   0  0  0  0  0  0  0  0  0  0  0  0
  134.9489  151.6471  200.2533 O   0  0  0  0  0  0  0  0  0  0  0  0
  135.5041  151.1060  197.3868 O   0  0  0  0  0  0  0  0  0  0  0  0
  136.1054  148.0549  198.6291 O   0  0  0  0  0  0  0  0  0  0  0  0
  137.9926  150.9000  199.5588 O   0  0  0  0  0  0  0  0  0  0  0  0
  138.6656  149.6908  196.5357 O   0  0  0  0  0  0  0  0  0  0  0  0
  137.2166  150.5754  191.6853 C   0  0  1  0  0  0  0  0  0  0  0  0
  137.0988  151.8827  191.0921 O   0  0  0  0  0  0  0  0  0  0  0  0
  138.2247  149.7881  190.9128 C   0  0  2  0  0  0  0  0  0  0  0  0
  137.8809  148.4487  190.8245 O   0  0  0  0  0  0  0  0  0  0  0  0
  140.8228  149.6229  189.8636 H   0  0  0  0  0  0  0  0  0  0  0  0
  140.0467  148.8972  191.5387 H   0  0  0  0  0  0  0  0  0  0  0  0
  139.4958  151.8276  192.3549 H   0  0  0  0  0  0  0  0  0  0  0  0
  142.6481  151.5551  193.9163 H   0  0  0  0  0  0  0  0  0  0  0  0
  140.9075  151.4679  195.9463 H   0  0  0  0  0  0  0  0  0  0  0  0
  139.7608  153.0278  197.5285 H   0  0  0  0  0  0  0  0  0  0  0  0
  139.2005  155.3196  196.7946 H   0  0  0  0  0  0  0  0  0  0  0  0
  139.7663  156.0414  194.5457 H   0  0  0  0  0  0  0  0  0  0  0  0
  140.9092  154.4554  192.9883 H   0  0  0  0  0  0  0  0  0  0  0  0
  137.6226  151.9218  193.2319 H   0  0  0  0  0  0  0  0  0  0  0  0
  136.4928  149.3027  194.2428 H   0  0  0  0  0  0  0  0  0  0  0  0
  135.4539  150.5979  193.6109 H   0  0  0  0  0  0  0  0  0  0  0  0
  135.9861  149.3865  196.4964 H   0  0  0  0  0  0  0  0  0  0  0  0
  138.0794  151.4976  197.2627 H   0  0  0  0  0  0  0  0  0  0  0  0
  138.2905  149.0858  198.7523 H   0  0  0  0  0  0  0  0  0  0  0  0
  136.0598  149.4698  200.0855 H   0  0  0  0  0  0  0  0  0  0  0  0
  134.4284  149.4685  197.8106 H   0  0  0  0  0  0  0  0  0  0  0  0
  133.7805  150.0166  199.9767 H   0  0  0  0  0  0  0  0  0  0  0  0
  133.4111  151.3670  198.8761 H   0  0  0  0  0  0  0  0  0  0  0  0
  135.4701  151.1529  200.9377 H   0  0  0  0  0  0  0  0  0  0  0  0
  135.4369  147.6229  199.2172 H   0  0  0  0  0  0  0  0  0  0  0  0
  138.5569  151.5397  199.0361 H   0  0  0  0  0  0  0  0  0  0  0  0
  138.8023  148.7891  196.9222 H   0  0  0  0  0  0  0  0  0  0  0  0
  136.2152  150.1347  191.4498 H   0  0  0  0  0  0  0  0  0  0  0  0
  136.8811  152.5450  191.7977 H   0  0  0  0  0  0  0  0  0  0  0  0
  138.1677  150.2052  189.8472 H   0  0  0  0  0  0  0  0  0  0  0  0
  138.5836  147.8811  191.2070 H   0  0  0  0  0  0  0  0  0  0  0  0
  1  2  1  0
  2  3  1  0
  3  4  1  0
  4  5  1  0
  5  6  1  0
  6  7  3  0
  5  8  1  0
  8  9  2  0
  9 10  1  0
 10 11  2  0
 11 12  1  0
 12 13  2  0
  3 14  1  0
 14 15  1  0
 15 16  1  0
 16 17  1  0
 17 18  1  0
 18 19  1  0
 19 20  1  0
 20 21  1  0
 21 22  1  0
 22 23  1  0
 23 24  1  0
 22 25  1  0
 21 26  1  0
 20 27  1  0
 19 28  1  0
 15 29  1  0
 29 30  1  0
 29 31  1  0
 31 32  1  0
 31  2  1  0
 13  8  1  0
 25 18  1  0
  1 33  1  0
  2 34  1  1
  3 35  1  6
  5 36  1  1
  9 37  1  0
 10 38  1  0
 11 39  1  0
 12 40  1  0
 13 41  1  0
 15 42  1  6
 16 43  1  0
 16 44  1  0
 18 45  1  6
 19 46  1  1
 20 47  1  6
 21 48  1  1
 22 49  1  6
 23 50  1  0
 23 51  1  0
 24 52  1  0
 26 53  1  0
 27 54  1  0
 28 55  1  0
 29 56  1  1
 30 57  1  0
 31 58  1  6
 32 59  1  0
M  END
>  <docking_score>  (3) 
-4.6529999999999996

$$$$
