
     RDKit          3D

 75 79  0  0  0  0  0  0  0  0999 V2000
  139.6834  147.4127  193.8852 O   0  0  0  0  0  0  0  0  0  0  0  0
  138.5917  147.8792  193.4999 C   0  0  0  0  0  0  0  0  0  0  0  0
  137.7476  148.6511  194.4032 C   0  0  1  0  0  0  0  0  0  0  0  0
  137.1836  147.7910  195.4784 C   0  0  2  0  0  0  0  0  0  0  0  0
  136.6356  148.4361  196.6824 C   0  0  2  0  0  0  0  0  0  0  0  0
  135.2692  148.1790  196.8477 O   0  0  0  0  0  0  0  0  0  0  0  0
  136.8474  149.9119  196.7857 C   0  0  2  0  0  0  0  0  0  0  0  0
  135.8338  150.6346  197.6386 C   0  0  2  0  0  0  0  0  0  0  0  0
  135.6338  149.8663  198.9283 C   0  0  0  0  0  0  0  0  0  0  0  0
  134.5040  150.8717  197.0272 C   0  0  0  0  0  0  0  0  0  0  0  0
  138.1693  146.8222  195.7849 O   0  0  0  0  0  0  0  0  0  0  0  0
  138.3134  149.9629  194.8274 C   0  0  2  0  0  0  0  0  0  0  0  0
  139.5301  150.0381  195.6064 C   0  0  2  0  0  0  0  0  0  0  0  0
  139.4901  151.4012  196.3024 C   0  0  0  0  0  0  0  0  0  0  0  0
  140.1771  151.6377  197.3112 O   0  0  0  0  0  0  0  0  0  0  0  0
  140.6584  150.0822  194.7034 O   0  0  0  0  0  0  0  0  0  0  0  0
  140.7307  150.8859  193.6046 C   0  0  0  0  0  0  0  0  0  0  0  0
  140.8644  150.3154  192.2669 C   0  0  0  0  0  0  0  0  0  0  0  0
  139.9605  150.4665  191.3269 C   0  0  0  0  0  0  0  0  0  0  0  0
  138.7292  151.2412  191.5802 C   0  0  0  0  0  0  0  0  0  0  0  0
  140.1686  149.8574  189.9913 C   0  0  0  0  0  0  0  0  0  0  0  0
  141.3308  148.8687  190.0321 C   0  0  0  0  0  0  0  0  0  0  0  0
  140.6042  150.9537  189.0152 C   0  0  0  0  0  0  0  0  0  0  0  0
  140.6770  152.1293  193.7973 O   0  0  0  0  0  0  0  0  0  0  0  0
  137.0523  150.5658  195.4644 C   0  0  2  0  0  0  0  0  0  0  0  0
  137.2394  152.0219  195.5107 C   0  0  2  0  0  0  0  0  0  0  0  0
  138.6350  152.3096  195.7053 O   0  0  0  0  0  0  0  0  0  0  0  0
  136.5112  152.7570  196.5941 C   0  0  0  0  0  0  0  0  0  0  0  0
  136.4522  152.0157  197.8986 C   0  0  1  0  0  0  0  0  0  0  0  0
  135.5713  152.7724  198.8200 C   0  0  0  0  0  0  0  0  0  0  0  0
  135.2669  154.2062  198.5757 C   0  0  0  0  0  0  0  0  0  0  0  0
  135.0492  152.1752  199.8702 C   0  0  0  0  0  0  0  0  0  0  0  0
  134.2079  152.8578  200.7700 O   0  0  0  0  0  0  0  0  0  0  0  0
  135.3714  150.7640  200.0792 C   0  0  0  0  0  0  0  0  0  0  0  0
  135.4265  150.3092  201.2408 O   0  0  0  0  0  0  0  0  0  0  0  0
  136.0306  150.0828  194.4494 C   0  0  0  0  0  0  0  0  0  0  0  0
  136.7009  149.1977  193.6003 O   0  0  0  0  0  0  0  0  0  0  0  0
  138.1980  147.6529  192.1981 O   0  0  0  0  0  0  0  0  0  0  0  0
  138.7591  146.5617  191.4978 C   0  0  0  0  0  0  0  0  0  0  0  0
  136.3573  147.1831  195.0026 H   0  0  0  0  0  0  0  0  0  0  0  0
  137.1075  147.9322  197.5806 H   0  0  0  0  0  0  0  0  0  0  0  0
  134.8853  147.6983  196.0676 H   0  0  0  0  0  0  0  0  0  0  0  0
  137.8107  150.0389  197.3621 H   0  0  0  0  0  0  0  0  0  0  0  0
  134.7026  149.2304  198.8463 H   0  0  0  0  0  0  0  0  0  0  0  0
  136.4627  149.1763  199.0972 H   0  0  0  0  0  0  0  0  0  0  0  0
  134.1534  151.9436  197.0708 H   0  0  0  0  0  0  0  0  0  0  0  0
  133.7086  150.1668  197.2765 H   0  0  0  0  0  0  0  0  0  0  0  0
  134.6595  150.7227  195.9130 H   0  0  0  0  0  0  0  0  0  0  0  0
  139.0496  147.0788  195.4158 H   0  0  0  0  0  0  0  0  0  0  0  0
  138.4536  150.5572  193.8818 H   0  0  0  0  0  0  0  0  0  0  0  0
  139.7746  149.2662  196.3351 H   0  0  0  0  0  0  0  0  0  0  0  0
  141.7527  149.7276  192.0074 H   0  0  0  0  0  0  0  0  0  0  0  0
  138.6878  152.1276  190.8988 H   0  0  0  0  0  0  0  0  0  0  0  0
  137.8208  150.6476  191.3361 H   0  0  0  0  0  0  0  0  0  0  0  0
  138.6167  151.5739  192.6200 H   0  0  0  0  0  0  0  0  0  0  0  0
  139.2910  149.3069  189.6358 H   0  0  0  0  0  0  0  0  0  0  0  0
  141.3668  148.4011  191.0351 H   0  0  0  0  0  0  0  0  0  0  0  0
  142.2549  149.5004  189.9591 H   0  0  0  0  0  0  0  0  0  0  0  0
  141.3097  148.1557  189.2076 H   0  0  0  0  0  0  0  0  0  0  0  0
  140.5215  150.6410  187.9724 H   0  0  0  0  0  0  0  0  0  0  0  0
  139.9215  151.8206  189.1520 H   0  0  0  0  0  0  0  0  0  0  0  0
  141.6679  151.2286  189.2027 H   0  0  0  0  0  0  0  0  0  0  0  0
  136.9745  152.4741  194.5349 H   0  0  0  0  0  0  0  0  0  0  0  0
  137.0841  153.7098  196.8069 H   0  0  0  0  0  0  0  0  0  0  0  0
  135.5025  153.1203  196.3119 H   0  0  0  0  0  0  0  0  0  0  0  0
  137.4304  151.8607  198.3584 H   0  0  0  0  0  0  0  0  0  0  0  0
  135.7631  154.8907  199.2697 H   0  0  0  0  0  0  0  0  0  0  0  0
  135.4655  154.4971  197.5303 H   0  0  0  0  0  0  0  0  0  0  0  0
  134.1467  154.2950  198.6926 H   0  0  0  0  0  0  0  0  0  0  0  0
  134.2544  152.6347  201.7536 H   0  0  0  0  0  0  0  0  0  0  0  0
  135.2316  149.4546  194.8992 H   0  0  0  0  0  0  0  0  0  0  0  0
  135.6396  150.9301  193.8503 H   0  0  0  0  0  0  0  0  0  0  0  0
  138.4513  146.5963  190.4476 H   0  0  0  0  0  0  0  0  0  0  0  0
  139.8625  146.5349  191.5817 H   0  0  0  0  0  0  0  0  0  0  0  0
  138.3059  145.6414  191.9452 H   0  0  0  0  0  0  0  0  0  0  0  0
  1  2  2  0
  3  2  1  6
  3  4  1  0
  4  5  1  0
  5  6  1  0
  5  7  1  0
  7  8  1  0
  8  9  1  0
  8 10  1  6
  4 11  1  0
  3 12  1  0
 12 13  1  0
 13 14  1  0
 14 15  2  0
 13 16  1  0
 16 17  1  0
 17 18  1  0
 18 19  2  0
 19 20  1  0
 19 21  1  0
 21 22  1  0
 21 23  1  0
 17 24  2  0
 12 25  1  0
 25 26  1  0
 26 27  1  0
 26 28  1  0
 28 29  1  0
 29 30  1  0
 30 31  1  0
 30 32  2  0
 32 33  1  0
 32 34  1  0
 34 35  2  0
 25 36  1  6
 36 37  1  0
  2 38  1  0
 38 39  1  0
 37  3  1  0
 25  7  1  0
 29  8  1  0
 34  9  1  0
 27 14  1  0
  4 40  1  6
  5 41  1  1
  6 42  1  0
  7 43  1  1
  9 44  1  0
  9 45  1  0
 10 46  1  0
 10 47  1  0
 10 48  1  0
 11 49  1  0
 12 50  1  6
 13 51  1  1
 18 52  1  0
 20 53  1  0
 20 54  1  0
 20 55  1  0
 21 56  1  0
 22 57  1  0
 22 58  1  0
 22 59  1  0
 23 60  1  0
 23 61  1  0
 23 62  1  0
 26 63  1  6
 28 64  1  0
 28 65  1  0
 29 66  1  1
 31 67  1  0
 31 68  1  0
 31 69  1  0
 33 70  1  0
 36 71  1  0
 36 72  1  0
 39 73  1  0
 39 74  1  0
 39 75  1  0
M  END
>  <docking_score>  (1) 
-5.1280000000000001

$$$$

     RDKit          3D

 75 79  0  0  0  0  0  0  0  0999 V2000
  142.2056  150.0506  190.8322 O   0  0  0  0  0  0  0  0  0  0  0  0
  141.1070  150.4079  190.3597 C   0  0  0  0  0  0  0  0  0  0  0  0
  139.8594  149.8412  190.8560 C   0  0  1  0  0  0  0  0  0  0  0  0
  139.7872  148.3801  190.5845 C   0  0  2  0  0  0  0  0  0  0  0  0
  138.8099  147.5718  191.3313 C   0  0  2  0  0  0  0  0  0  0  0  0
  137.8622  146.9743  190.4914 O   0  0  0  0  0  0  0  0  0  0  0  0
  138.0805  148.2785  192.4277 C   0  0  2  0  0  0  0  0  0  0  0  0
  136.7350  147.6878  192.7707 C   0  0  2  0  0  0  0  0  0  0  0  0
  136.8673  146.1829  192.8774 C   0  0  0  0  0  0  0  0  0  0  0  0
  135.6223  147.9921  191.8390 C   0  0  0  0  0  0  0  0  0  0  0  0
  141.1057  147.8780  190.7005 O   0  0  0  0  0  0  0  0  0  0  0  0
  139.4658  150.2850  192.2233 C   0  0  2  0  0  0  0  0  0  0  0  0
  140.2801  149.9709  193.3770 C   0  0  2  0  0  0  0  0  0  0  0  0
  139.3413  150.0680  194.5825 C   0  0  0  0  0  0  0  0  0  0  0  0
  139.6103  149.5158  195.6635 O   0  0  0  0  0  0  0  0  0  0  0  0
  141.2640  151.0160  193.5500 O   0  0  0  0  0  0  0  0  0  0  0  0
  141.0012  152.3470  193.4153 C   0  0  0  0  0  0  0  0  0  0  0  0
  140.3599  153.0966  194.4922 C   0  0  0  0  0  0  0  0  0  0  0  0
  141.0294  153.6935  195.4509 C   0  0  0  0  0  0  0  0  0  0  0  0
  142.5044  153.6363  195.4910 C   0  0  0  0  0  0  0  0  0  0  0  0
  140.3064  154.4376  196.5099 C   0  0  0  0  0  0  0  0  0  0  0  0
  138.9173  153.8426  196.7252 C   0  0  0  0  0  0  0  0  0  0  0  0
  140.0624  155.8689  196.0237 C   0  0  0  0  0  0  0  0  0  0  0  0
  141.3348  152.8918  192.3300 O   0  0  0  0  0  0  0  0  0  0  0  0
  138.0247  149.7533  192.2351 C   0  0  2  0  0  0  0  0  0  0  0  0
  137.2950  150.4915  193.2744 C   0  0  2  0  0  0  0  0  0  0  0  0
  138.2003  150.8126  194.3448 O   0  0  0  0  0  0  0  0  0  0  0  0
  136.1373  149.7848  193.9106 C   0  0  0  0  0  0  0  0  0  0  0  0
  136.3630  148.3154  194.1216 C   0  0  1  0  0  0  0  0  0  0  0  0
  135.0930  147.7170  194.5976 C   0  0  0  0  0  0  0  0  0  0  0  0
  134.0265  148.5661  195.1890 C   0  0  0  0  0  0  0  0  0  0  0  0
  134.8999  146.4189  194.5002 C   0  0  0  0  0  0  0  0  0  0  0  0
  133.7084  145.8108  194.9404 O   0  0  0  0  0  0  0  0  0  0  0  0
  135.9716  145.6147  193.9139 C   0  0  0  0  0  0  0  0  0  0  0  0
  136.1348  144.4354  194.2904 O   0  0  0  0  0  0  0  0  0  0  0  0
  137.6395  150.1057  190.8086 C   0  0  0  0  0  0  0  0  0  0  0  0
  138.8105  150.5285  190.1732 O   0  0  0  0  0  0  0  0  0  0  0  0
  141.0944  151.3547  189.3575 O   0  0  0  0  0  0  0  0  0  0  0  0
  142.3145  151.9543  188.9729 C   0  0  0  0  0  0  0  0  0  0  0  0
  139.5604  148.2695  189.4822 H   0  0  0  0  0  0  0  0  0  0  0  0
  139.3665  146.6875  191.7690 H   0  0  0  0  0  0  0  0  0  0  0  0
  138.1976  146.8812  189.5609 H   0  0  0  0  0  0  0  0  0  0  0  0
  138.6902  148.0972  193.3614 H   0  0  0  0  0  0  0  0  0  0  0  0
  136.5228  145.7060  191.9120 H   0  0  0  0  0  0  0  0  0  0  0  0
  137.9132  145.8970  193.0047 H   0  0  0  0  0  0  0  0  0  0  0  0
  135.1829  147.0890  191.3241 H   0  0  0  0  0  0  0  0  0  0  0  0
  135.7618  148.8307  191.1541 H   0  0  0  0  0  0  0  0  0  0  0  0
  134.7630  148.3232  192.5022 H   0  0  0  0  0  0  0  0  0  0  0  0
  141.3790  147.8069  191.6478 H   0  0  0  0  0  0  0  0  0  0  0  0
  139.3451  151.4023  192.1606 H   0  0  0  0  0  0  0  0  0  0  0  0
  140.8396  149.0376  193.4276 H   0  0  0  0  0  0  0  0  0  0  0  0
  139.2674  153.1812  194.5268 H   0  0  0  0  0  0  0  0  0  0  0  0
  142.8419  153.1096  196.4186 H   0  0  0  0  0  0  0  0  0  0  0  0
  142.9083  153.0284  194.6516 H   0  0  0  0  0  0  0  0  0  0  0  0
  142.9915  154.6179  195.4304 H   0  0  0  0  0  0  0  0  0  0  0  0
  140.8220  154.4073  197.4757 H   0  0  0  0  0  0  0  0  0  0  0  0
  138.3056  154.0275  195.8210 H   0  0  0  0  0  0  0  0  0  0  0  0
  138.4551  154.4648  197.5360 H   0  0  0  0  0  0  0  0  0  0  0  0
  138.9474  152.7986  197.0380 H   0  0  0  0  0  0  0  0  0  0  0  0
  139.6280  155.9012  195.0226 H   0  0  0  0  0  0  0  0  0  0  0  0
  139.3295  156.3413  196.7137 H   0  0  0  0  0  0  0  0  0  0  0  0
  141.0254  156.4291  195.9930 H   0  0  0  0  0  0  0  0  0  0  0  0
  136.9432  151.4643  192.8788 H   0  0  0  0  0  0  0  0  0  0  0  0
  135.9920  150.2255  194.9431 H   0  0  0  0  0  0  0  0  0  0  0  0
  135.1598  149.9571  193.4169 H   0  0  0  0  0  0  0  0  0  0  0  0
  137.1686  148.0928  194.8245 H   0  0  0  0  0  0  0  0  0  0  0  0
  133.6078  149.3014  194.4959 H   0  0  0  0  0  0  0  0  0  0  0  0
  133.2261  147.9616  195.6484 H   0  0  0  0  0  0  0  0  0  0  0  0
  134.5189  149.0995  196.0548 H   0  0  0  0  0  0  0  0  0  0  0  0
  133.2798  145.0966  194.3697 H   0  0  0  0  0  0  0  0  0  0  0  0
  137.3249  149.2232  190.2106 H   0  0  0  0  0  0  0  0  0  0  0  0
  136.9021  150.9338  190.7929 H   0  0  0  0  0  0  0  0  0  0  0  0
  142.2097  152.4074  187.9816 H   0  0  0  0  0  0  0  0  0  0  0  0
  142.6624  152.7026  189.7106 H   0  0  0  0  0  0  0  0  0  0  0  0
  143.0531  151.1189  188.8784 H   0  0  0  0  0  0  0  0  0  0  0  0
  1  2  2  0
  3  2  1  6
  3  4  1  0
  4  5  1  0
  5  6  1  0
  5  7  1  0
  7  8  1  0
  8  9  1  0
  8 10  1  6
  4 11  1  0
  3 12  1  0
 12 13  1  0
 13 14  1  0
 14 15  2  0
 13 16  1  0
 16 17  1  0
 17 18  1  0
 18 19  2  0
 19 20  1  0
 19 21  1  0
 21 22  1  0
 21 23  1  0
 17 24  2  0
 12 25  1  0
 25 26  1  0
 26 27  1  0
 26 28  1  0
 28 29  1  0
 29 30  1  0
 30 31  1  0
 30 32  2  0
 32 33  1  0
 32 34  1  0
 34 35  2  0
 25 36  1  6
 36 37  1  0
  2 38  1  0
 38 39  1  0
 37  3  1  0
 25  7  1  0
 29  8  1  0
 34  9  1  0
 27 14  1  0
  4 40  1  6
  5 41  1  1
  6 42  1  0
  7 43  1  1
  9 44  1  0
  9 45  1  0
 10 46  1  0
 10 47  1  0
 10 48  1  0
 11 49  1  0
 12 50  1  6
 13 51  1  6
 18 52  1  0
 20 53  1  0
 20 54  1  0
 20 55  1  0
 21 56  1  0
 22 57  1  0
 22 58  1  0
 22 59  1  0
 23 60  1  0
 23 61  1  0
 23 62  1  0
 26 63  1  6
 28 64  1  0
 28 65  1  0
 29 66  1  1
 31 67  1  0
 31 68  1  0
 31 69  1  0
 33 70  1  0
 36 71  1  0
 36 72  1  0
 39 73  1  0
 39 74  1  0
 39 75  1  0
M  END
>  <docking_score>  (2) 
-4.96

$$$$

     RDKit          3D

 75 79  0  0  0  0  0  0  0  0999 V2000
  139.2316  147.0623  193.6330 O   0  0  0  0  0  0  0  0  0  0  0  0
  138.4533  147.9394  193.2054 C   0  0  0  0  0  0  0  0  0  0  0  0
  137.6656  148.7523  194.1235 C   0  0  1  0  0  0  0  0  0  0  0  0
  136.8541  147.9006  195.0345 C   0  0  2  0  0  0  0  0  0  0  0  0
  136.3035  148.5036  196.2590 C   0  0  2  0  0  0  0  0  0  0  0  0
  134.9035  148.4842  196.2776 O   0  0  0  0  0  0  0  0  0  0  0  0
  136.7538  149.8965  196.5599 C   0  0  2  0  0  0  0  0  0  0  0  0
  135.7968  150.6976  197.4080 C   0  0  2  0  0  0  0  0  0  0  0  0
  135.3354  149.8464  198.5726 C   0  0  0  0  0  0  0  0  0  0  0  0
  134.5979  151.2370  196.7222 C   0  0  0  0  0  0  0  0  0  0  0  0
  137.6216  146.7412  195.3004 O   0  0  0  0  0  0  0  0  0  0  0  0
  138.4014  149.8863  194.7510 C   0  0  2  0  0  0  0  0  0  0  0  0
  139.5257  149.6550  195.6314 C   0  0  2  0  0  0  0  0  0  0  0  0
  139.6487  150.9209  196.4838 C   0  0  0  0  0  0  0  0  0  0  0  0
  140.2580  150.9197  197.5675 O   0  0  0  0  0  0  0  0  0  0  0  0
  140.7320  149.5878  194.8374 O   0  0  0  0  0  0  0  0  0  0  0  0
  141.9085  149.0541  195.2730 C   0  0  0  0  0  0  0  0  0  0  0  0
  142.1368  147.6121  195.2337 C   0  0  0  0  0  0  0  0  0  0  0  0
  141.9937  146.8324  196.2802 C   0  0  0  0  0  0  0  0  0  0  0  0
  141.5840  147.3877  197.5856 C   0  0  0  0  0  0  0  0  0  0  0  0
  142.2426  145.3757  196.1610 C   0  0  0  0  0  0  0  0  0  0  0  0
  140.9638  144.6485  195.7539 C   0  0  0  0  0  0  0  0  0  0  0  0
  142.5985  144.8246  197.5444 C   0  0  0  0  0  0  0  0  0  0  0  0
  142.7781  149.8557  195.7056 O   0  0  0  0  0  0  0  0  0  0  0  0
  137.2035  150.6383  195.3503 C   0  0  2  0  0  0  0  0  0  0  0  0
  137.6322  152.0226  195.5904 C   0  0  2  0  0  0  0  0  0  0  0  0
  139.0288  152.0282  195.9339 O   0  0  0  0  0  0  0  0  0  0  0  0
  136.9330  152.7592  196.6917 C   0  0  0  0  0  0  0  0  0  0  0  0
  136.6129  151.9071  197.8859 C   0  0  1  0  0  0  0  0  0  0  0  0
  135.7846  152.7099  198.8170 C   0  0  0  0  0  0  0  0  0  0  0  0
  135.7580  154.1929  198.7262 C   0  0  0  0  0  0  0  0  0  0  0  0
  135.0619  152.1102  199.7390 C   0  0  0  0  0  0  0  0  0  0  0  0
  134.2619  152.8355  200.6430 O   0  0  0  0  0  0  0  0  0  0  0  0
  135.1135  150.6498  199.7993 C   0  0  0  0  0  0  0  0  0  0  0  0
  134.9691  150.0720  200.8968 O   0  0  0  0  0  0  0  0  0  0  0  0
  136.2246  150.4604  194.2026 C   0  0  0  0  0  0  0  0  0  0  0  0
  136.8171  149.5628  193.3098 O   0  0  0  0  0  0  0  0  0  0  0  0
  138.3537  148.1286  191.8434 O   0  0  0  0  0  0  0  0  0  0  0  0
  137.8699  147.0695  191.0432 C   0  0  0  0  0  0  0  0  0  0  0  0
  135.9893  147.5077  194.4208 H   0  0  0  0  0  0  0  0  0  0  0  0
  136.5863  147.8297  197.1245 H   0  0  0  0  0  0  0  0  0  0  0  0
  134.5152  149.1894  195.6955 H   0  0  0  0  0  0  0  0  0  0  0  0
  137.6598  149.7836  197.2253 H   0  0  0  0  0  0  0  0  0  0  0  0
  134.3224  149.4036  198.3362 H   0  0  0  0  0  0  0  0  0  0  0  0
  136.0114  149.0027  198.7237 H   0  0  0  0  0  0  0  0  0  0  0  0
  133.7177  151.4306  197.4016 H   0  0  0  0  0  0  0  0  0  0  0  0
  134.3006  150.7569  195.7880 H   0  0  0  0  0  0  0  0  0  0  0  0
  134.8850  152.2889  196.4076 H   0  0  0  0  0  0  0  0  0  0  0  0
  138.1939  146.5068  194.5294 H   0  0  0  0  0  0  0  0  0  0  0  0
  138.7386  150.5418  193.9003 H   0  0  0  0  0  0  0  0  0  0  0  0
  139.5572  148.7786  196.2776 H   0  0  0  0  0  0  0  0  0  0  0  0
  142.4435  147.1305  194.2978 H   0  0  0  0  0  0  0  0  0  0  0  0
  141.1265  146.5849  198.2165 H   0  0  0  0  0  0  0  0  0  0  0  0
  142.4627  147.7448  198.1667 H   0  0  0  0  0  0  0  0  0  0  0  0
  140.8905  148.2352  197.5129 H   0  0  0  0  0  0  0  0  0  0  0  0
  143.0016  145.1363  195.4086 H   0  0  0  0  0  0  0  0  0  0  0  0
  140.1540  144.9310  196.4543 H   0  0  0  0  0  0  0  0  0  0  0  0
  141.1692  143.5634  195.9504 H   0  0  0  0  0  0  0  0  0  0  0  0
  140.7133  144.7883  194.7021 H   0  0  0  0  0  0  0  0  0  0  0  0
  142.1825  145.4279  198.3537 H   0  0  0  0  0  0  0  0  0  0  0  0
  142.1525  143.8096  197.6303 H   0  0  0  0  0  0  0  0  0  0  0  0
  143.7056  144.8043  197.6720 H   0  0  0  0  0  0  0  0  0  0  0  0
  137.5513  152.6163  194.6590 H   0  0  0  0  0  0  0  0  0  0  0  0
  137.6360  153.5633  197.0666 H   0  0  0  0  0  0  0  0  0  0  0  0
  136.0365  153.3284  196.3736 H   0  0  0  0  0  0  0  0  0  0  0  0
  137.4971  151.5281  198.4028 H   0  0  0  0  0  0  0  0  0  0  0  0
  136.4066  154.6945  199.4501 H   0  0  0  0  0  0  0  0  0  0  0  0
  135.9674  154.5466  197.7025 H   0  0  0  0  0  0  0  0  0  0  0  0
  134.6826  154.4818  198.9175 H   0  0  0  0  0  0  0  0  0  0  0  0
  133.3095  152.5412  200.8036 H   0  0  0  0  0  0  0  0  0  0  0  0
  135.2874  149.9446  194.5041 H   0  0  0  0  0  0  0  0  0  0  0  0
  136.0491  151.4235  193.6817 H   0  0  0  0  0  0  0  0  0  0  0  0
  138.2031  146.1109  191.4543 H   0  0  0  0  0  0  0  0  0  0  0  0
  136.7676  147.0912  190.9442 H   0  0  0  0  0  0  0  0  0  0  0  0
  138.3592  147.1888  190.0438 H   0  0  0  0  0  0  0  0  0  0  0  0
  1  2  2  0
  3  2  1  6
  3  4  1  0
  4  5  1  0
  5  6  1  0
  5  7  1  0
  7  8  1  0
  8  9  1  0
  8 10  1  6
  4 11  1  0
  3 12  1  0
 12 13  1  0
 13 14  1  0
 14 15  2  0
 13 16  1  0
 16 17  1  0
 17 18  1  0
 18 19  2  0
 19 20  1  0
 19 21  1  0
 21 22  1  0
 21 23  1  0
 17 24  2  0
 12 25  1  0
 25 26  1  0
 26 27  1  0
 26 28  1  0
 28 29  1  0
 29 30  1  0
 30 31  1  0
 30 32  2  0
 32 33  1  0
 32 34  1  0
 34 35  2  0
 25 36  1  6
 36 37  1  0
  2 38  1  0
 38 39  1  0
 37  3  1  0
 25  7  1  0
 29  8  1  0
 34  9  1  0
 27 14  1  0
  4 40  1  6
  5 41  1  1
  6 42  1  0
  7 43  1  1
  9 44  1  0
  9 45  1  0
 10 46  1  0
 10 47  1  0
 10 48  1  0
 11 49  1  0
 12 50  1  6
 13 51  1  1
 18 52  1  0
 20 53  1  0
 20 54  1  0
 20 55  1  0
 21 56  1  0
 22 57  1  0
 22 58  1  0
 22 59  1  0
 23 60  1  0
 23 61  1  0
 23 62  1  0
 26 63  1  6
 28 64  1  0
 28 65  1  0
 29 66  1  1
 31 67  1  0
 31 68  1  0
 31 69  1  0
 33 70  1  0
 36 71  1  0
 36 72  1  0
 39 73  1  0
 39 74  1  0
 39 75  1  0
M  END
>  <docking_score>  (3) 
-4.6980000000000004

$$$$
