
     RDKit          3D

 42 44  0  0  0  0  0  0  0  0999 V2000
  119.6863  154.8322  178.5181 O   0  0  0  0  0  0  0  0  0  0  0  0
  118.4656  155.0522  178.4434 C   0  0  0  0  0  0  0  0  0  0  0  0
  117.7580  154.6610  177.3370 C   0  0  0  0  0  0  0  0  0  0  0  0
  118.3588  154.0206  176.2807 C   0  0  0  0  0  0  0  0  0  0  0  0
  119.6709  153.7216  176.2328 O   0  0  0  0  0  0  0  0  0  0  0  0
  117.5321  153.6679  175.1994 C   0  0  0  0  0  0  0  0  0  0  0  0
  118.1077  153.0212  174.1193 O   0  0  0  0  0  0  0  0  0  0  0  0
  118.2510  151.6036  174.0795 C   0  0  0  0  0  0  0  0  0  0  0  0
  116.1906  153.9470  175.1939 C   0  0  0  0  0  0  0  0  0  0  0  0
  115.3781  153.5860  174.1013 O   0  0  0  0  0  0  0  0  0  0  0  0
  114.2775  154.3793  173.7603 C   0  0  0  0  0  0  0  0  0  0  0  0
  115.6335  154.5820  176.2577 C   0  0  0  0  0  0  0  0  0  0  0  0
  116.4046  154.9465  177.3396 C   0  0  0  0  0  0  0  0  0  0  0  0
  115.8279  155.5501  178.3307 O   0  0  0  0  0  0  0  0  0  0  0  0
  116.4515  155.9520  179.4259 C   0  0  0  0  0  0  0  0  0  0  0  0
  115.6337  156.6181  180.4444 C   0  0  0  0  0  0  0  0  0  0  0  0
  115.5360  157.9743  180.6013 C   0  0  0  0  0  0  0  0  0  0  0  0
  114.7018  158.5425  181.5657 C   0  0  0  0  0  0  0  0  0  0  0  0
  114.6211  159.9207  181.7020 O   0  0  0  0  0  0  0  0  0  0  0  0
  113.9444  157.7533  182.3991 C   0  0  0  0  0  0  0  0  0  0  0  0
  113.1278  158.3546  183.3446 O   0  0  0  0  0  0  0  0  0  0  0  0
  114.0458  156.3829  182.2395 C   0  0  0  0  0  0  0  0  0  0  0  0
  114.8588  155.8239  181.2985 C   0  0  0  0  0  0  0  0  0  0  0  0
  117.7826  155.7004  179.4778 C   0  0  0  0  0  0  0  0  0  0  0  0
  118.5569  156.0661  180.5453 O   0  0  0  0  0  0  0  0  0  0  0  0
  118.4347  155.4151  181.8116 C   0  0  0  0  0  0  0  0  0  0  0  0
  120.4882  153.9745  176.6703 H   0  0  0  0  0  0  0  0  0  0  0  0
  117.9329  151.2504  173.0740 H   0  0  0  0  0  0  0  0  0  0  0  0
  117.6205  151.1307  174.8866 H   0  0  0  0  0  0  0  0  0  0  0  0
  119.3040  151.2985  174.2697 H   0  0  0  0  0  0  0  0  0  0  0  0
  114.5208  155.4558  173.6995 H   0  0  0  0  0  0  0  0  0  0  0  0
  113.7567  154.0428  172.8411 H   0  0  0  0  0  0  0  0  0  0  0  0
  113.5086  154.2782  174.5825 H   0  0  0  0  0  0  0  0  0  0  0  0
  114.5535  154.8192  176.2793 H   0  0  0  0  0  0  0  0  0  0  0  0
  116.1306  158.6519  179.9898 H   0  0  0  0  0  0  0  0  0  0  0  0
  115.3640  160.4547  182.1527 H   0  0  0  0  0  0  0  0  0  0  0  0
  112.3695  157.7816  183.7349 H   0  0  0  0  0  0  0  0  0  0  0  0
  113.4403  155.7409  182.9048 H   0  0  0  0  0  0  0  0  0  0  0  0
  114.9296  154.7295  181.1816 H   0  0  0  0  0  0  0  0  0  0  0  0
  118.6890  156.0993  182.6480 H   0  0  0  0  0  0  0  0  0  0  0  0
  117.3767  155.0919  181.9011 H   0  0  0  0  0  0  0  0  0  0  0  0
  119.0521  154.5080  181.8776 H   0  0  0  0  0  0  0  0  0  0  0  0
  1  2  2  0
  2  3  1  0
  3  4  2  0
  4  5  1  0
  4  6  1  0
  6  7  1  0
  7  8  1  0
  6  9  2  0
  9 10  1  0
 10 11  1  0
  9 12  1  0
 12 13  2  0
 13 14  1  0
 14 15  1  0
 15 16  1  0
 16 17  2  0
 17 18  1  0
 18 19  1  0
 18 20  2  0
 20 21  1  0
 20 22  1  0
 22 23  2  0
 15 24  2  0
 24 25  1  0
 25 26  1  0
 24  2  1  0
 13  3  1  0
 23 16  1  0
  5 27  1  0
  8 28  1  0
  8 29  1  0
  8 30  1  0
 11 31  1  0
 11 32  1  0
 11 33  1  0
 12 34  1  0
 17 35  1  0
 19 36  1  0
 21 37  1  0
 22 38  1  0
 23 39  1  0
 26 40  1  0
 26 41  1  0
 26 42  1  0
M  END
>  <docking_score>  (1) 
-5.657

$$$$

     RDKit          3D

 42 44  0  0  0  0  0  0  0  0999 V2000
  115.1643  156.8885  183.1400 O   0  0  0  0  0  0  0  0  0  0  0  0
  115.3497  157.1898  181.9488 C   0  0  0  0  0  0  0  0  0  0  0  0
  114.9026  158.3896  181.4604 C   0  0  0  0  0  0  0  0  0  0  0  0
  114.2406  159.2945  182.2540 C   0  0  0  0  0  0  0  0  0  0  0  0
  113.9744  159.0941  183.5588 O   0  0  0  0  0  0  0  0  0  0  0  0
  113.8277  160.4916  181.6427 C   0  0  0  0  0  0  0  0  0  0  0  0
  113.1579  161.4240  182.4160 O   0  0  0  0  0  0  0  0  0  0  0  0
  113.8298  162.5320  183.0099 C   0  0  0  0  0  0  0  0  0  0  0  0
  114.0715  160.7488  180.3191 C   0  0  0  0  0  0  0  0  0  0  0  0
  113.6500  161.9541  179.7240 O   0  0  0  0  0  0  0  0  0  0  0  0
  113.9123  162.1908  178.3705 C   0  0  0  0  0  0  0  0  0  0  0  0
  114.7293  159.8285  179.5673 C   0  0  0  0  0  0  0  0  0  0  0  0
  115.1526  158.6414  180.1236 C   0  0  0  0  0  0  0  0  0  0  0  0
  115.7764  157.7948  179.3661 O   0  0  0  0  0  0  0  0  0  0  0  0
  116.2338  156.6227  179.7743 C   0  0  0  0  0  0  0  0  0  0  0  0
  116.9168  155.7961  178.7744 C   0  0  0  0  0  0  0  0  0  0  0  0
  116.3843  155.4347  177.5663 C   0  0  0  0  0  0  0  0  0  0  0  0
  117.1095  154.6813  176.6414 C   0  0  0  0  0  0  0  0  0  0  0  0
  116.5454  154.3301  175.4237 O   0  0  0  0  0  0  0  0  0  0  0  0
  118.3935  154.2716  176.9145 C   0  0  0  0  0  0  0  0  0  0  0  0
  119.0816  153.5247  175.9707 O   0  0  0  0  0  0  0  0  0  0  0  0
  118.9290  154.6370  178.1366 C   0  0  0  0  0  0  0  0  0  0  0  0
  118.2245  155.3733  179.0425 C   0  0  0  0  0  0  0  0  0  0  0  0
  116.0149  156.3207  181.0777 C   0  0  0  0  0  0  0  0  0  0  0  0
  116.4252  155.1406  181.6359 O   0  0  0  0  0  0  0  0  0  0  0  0
  115.6819  153.9334  181.4557 C   0  0  0  0  0  0  0  0  0  0  0  0
  113.5238  158.4545  184.1165 H   0  0  0  0  0  0  0  0  0  0  0  0
  114.2493  163.1615  182.1946 H   0  0  0  0  0  0  0  0  0  0  0  0
  114.6494  162.1638  183.6919 H   0  0  0  0  0  0  0  0  0  0  0  0
  113.1359  163.1379  183.6340 H   0  0  0  0  0  0  0  0  0  0  0  0
  113.2375  162.9432  177.9228 H   0  0  0  0  0  0  0  0  0  0  0  0
  114.9720  162.4416  178.1618 H   0  0  0  0  0  0  0  0  0  0  0  0
  113.7259  161.2288  177.8072 H   0  0  0  0  0  0  0  0  0  0  0  0
  114.9392  160.0106  178.4968 H   0  0  0  0  0  0  0  0  0  0  0  0
  115.3629  155.7059  177.3023 H   0  0  0  0  0  0  0  0  0  0  0  0
  116.0683  155.0177  174.8408 H   0  0  0  0  0  0  0  0  0  0  0  0
  118.6590  153.4535  175.0368 H   0  0  0  0  0  0  0  0  0  0  0  0
  119.9606  154.3123  178.3643 H   0  0  0  0  0  0  0  0  0  0  0  0
  118.6641  155.6582  180.0130 H   0  0  0  0  0  0  0  0  0  0  0  0
  116.2829  153.0401  181.7268 H   0  0  0  0  0  0  0  0  0  0  0  0
  114.7962  154.0043  182.1207 H   0  0  0  0  0  0  0  0  0  0  0  0
  115.3027  153.8242  180.4297 H   0  0  0  0  0  0  0  0  0  0  0  0
  1  2  2  0
  2  3  1  0
  3  4  2  0
  4  5  1  0
  4  6  1  0
  6  7  1  0
  7  8  1  0
  6  9  2  0
  9 10  1  0
 10 11  1  0
  9 12  1  0
 12 13  2  0
 13 14  1  0
 14 15  1  0
 15 16  1  0
 16 17  2  0
 17 18  1  0
 18 19  1  0
 18 20  2  0
 20 21  1  0
 20 22  1  0
 22 23  2  0
 15 24  2  0
 24 25  1  0
 25 26  1  0
 24  2  1  0
 13  3  1  0
 23 16  1  0
  5 27  1  0
  8 28  1  0
  8 29  1  0
  8 30  1  0
 11 31  1  0
 11 32  1  0
 11 33  1  0
 12 34  1  0
 17 35  1  0
 19 36  1  0
 21 37  1  0
 22 38  1  0
 23 39  1  0
 26 40  1  0
 26 41  1  0
 26 42  1  0
M  END
>  <docking_score>  (2) 
-5.6219999999999999

$$$$

     RDKit          3D

 42 44  0  0  0  0  0  0  0  0999 V2000
  138.0946  152.8012  195.6559 O   0  0  0  0  0  0  0  0  0  0  0  0
  137.2842  151.8667  195.5376 C   0  0  0  0  0  0  0  0  0  0  0  0
  136.3662  151.6173  196.5240 C   0  0  0  0  0  0  0  0  0  0  0  0
  136.3049  152.3770  197.6668 C   0  0  0  0  0  0  0  0  0  0  0  0
  137.1221  153.4167  197.9211 O   0  0  0  0  0  0  0  0  0  0  0  0
  135.3223  152.0266  198.6096 C   0  0  0  0  0  0  0  0  0  0  0  0
  135.2350  152.7730  199.7720 O   0  0  0  0  0  0  0  0  0  0  0  0
  134.5001  153.9930  199.8301 C   0  0  0  0  0  0  0  0  0  0  0  0
  134.4639  150.9785  198.4035 C   0  0  0  0  0  0  0  0  0  0  0  0
  133.4857  150.6423  199.3598 O   0  0  0  0  0  0  0  0  0  0  0  0
  133.8465  149.9124  200.4973 C   0  0  0  0  0  0  0  0  0  0  0  0
  134.5563  150.2510  197.2602 C   0  0  0  0  0  0  0  0  0  0  0  0
  135.5036  150.5578  196.3082 C   0  0  0  0  0  0  0  0  0  0  0  0
  135.5527  149.8349  195.2337 O   0  0  0  0  0  0  0  0  0  0  0  0
  136.4115  150.0228  194.2453 C   0  0  0  0  0  0  0  0  0  0  0  0
  136.3174  149.1050  193.1058 C   0  0  0  0  0  0  0  0  0  0  0  0
  136.4516  147.7452  193.1868 C   0  0  0  0  0  0  0  0  0  0  0  0
  136.3057  146.9260  192.0659 C   0  0  0  0  0  0  0  0  0  0  0  0
  136.4458  145.5504  192.1770 O   0  0  0  0  0  0  0  0  0  0  0  0
  136.0211  147.4609  190.8314 C   0  0  0  0  0  0  0  0  0  0  0  0
  135.8834  146.6149  189.7417 O   0  0  0  0  0  0  0  0  0  0  0  0
  135.8871  148.8356  190.7518 C   0  0  0  0  0  0  0  0  0  0  0  0
  136.0283  149.6392  191.8441 C   0  0  0  0  0  0  0  0  0  0  0  0
  137.2844  151.0479  194.4035 C   0  0  0  0  0  0  0  0  0  0  0  0
  138.2334  151.3542  193.4662 O   0  0  0  0  0  0  0  0  0  0  0  0
  139.4925  150.6791  193.4332 C   0  0  0  0  0  0  0  0  0  0  0  0
  137.1541  154.3658  197.7751 H   0  0  0  0  0  0  0  0  0  0  0  0
  134.3761  154.3735  198.7924 H   0  0  0  0  0  0  0  0  0  0  0  0
  135.0508  154.7435  200.4673 H   0  0  0  0  0  0  0  0  0  0  0  0
  133.5016  153.8412  200.2971 H   0  0  0  0  0  0  0  0  0  0  0  0
  133.8000  148.8187  200.3439 H   0  0  0  0  0  0  0  0  0  0  0  0
  134.8282  150.2073  200.9200 H   0  0  0  0  0  0  0  0  0  0  0  0
  133.0984  150.1461  201.3116 H   0  0  0  0  0  0  0  0  0  0  0  0
  133.8761  149.4003  197.0685 H   0  0  0  0  0  0  0  0  0  0  0  0
  136.7032  147.2638  194.1310 H   0  0  0  0  0  0  0  0  0  0  0  0
  137.0278  145.1323  192.9027 H   0  0  0  0  0  0  0  0  0  0  0  0
  136.6959  146.5232  189.1194 H   0  0  0  0  0  0  0  0  0  0  0  0
  135.6580  149.2740  189.7635 H   0  0  0  0  0  0  0  0  0  0  0  0
  135.9182  150.7338  191.7665 H   0  0  0  0  0  0  0  0  0  0  0  0
  139.7988  150.4382  192.3936 H   0  0  0  0  0  0  0  0  0  0  0  0
  140.2331  151.3668  193.8915 H   0  0  0  0  0  0  0  0  0  0  0  0
  139.4918  149.7615  194.0385 H   0  0  0  0  0  0  0  0  0  0  0  0
  1  2  2  0
  2  3  1  0
  3  4  2  0
  4  5  1  0
  4  6  1  0
  6  7  1  0
  7  8  1  0
  6  9  2  0
  9 10  1  0
 10 11  1  0
  9 12  1  0
 12 13  2  0
 13 14  1  0
 14 15  1  0
 15 16  1  0
 16 17  2  0
 17 18  1  0
 18 19  1  0
 18 20  2  0
 20 21  1  0
 20 22  1  0
 22 23  2  0
 15 24  2  0
 24 25  1  0
 25 26  1  0
 24  2  1  0
 13  3  1  0
 23 16  1  0
  5 27  1  0
  8 28  1  0
  8 29  1  0
  8 30  1  0
 11 31  1  0
 11 32  1  0
 11 33  1  0
 12 34  1  0
 17 35  1  0
 19 36  1  0
 21 37  1  0
 22 38  1  0
 23 39  1  0
 26 40  1  0
 26 41  1  0
 26 42  1  0
M  END
>  <docking_score>  (3) 
-4.8689999999999998

$$$$
