
     RDKit          3D

 38 40  0  0  0  0  0  0  0  0999 V2000
  120.0704  153.8490  177.5944 O   0  0  0  0  0  0  0  0  0  0  0  0
  118.9643  154.3998  177.6092 C   0  0  0  0  0  0  0  0  0  0  0  0
  118.4985  155.3473  178.6651 C   0  0  0  0  0  0  0  0  0  0  0  0
  117.2006  154.7179  179.1906 C   0  0  1  0  0  0  0  0  0  0  0  0
  116.7747  155.4934  180.3747 C   0  0  0  0  0  0  0  0  0  0  0  0
  117.6960  156.1077  181.1988 C   0  0  0  0  0  0  0  0  0  0  0  0
  117.3169  156.8360  182.3089 C   0  0  0  0  0  0  0  0  0  0  0  0
  115.9895  156.9866  182.6514 C   0  0  0  0  0  0  0  0  0  0  0  0
  115.6045  157.7251  183.7773 O   0  0  0  0  0  0  0  0  0  0  0  0
  115.0620  156.3761  181.8335 C   0  0  0  0  0  0  0  0  0  0  0  0
  115.4423  155.6468  180.7217 C   0  0  0  0  0  0  0  0  0  0  0  0
  116.2593  154.7203  178.1600 O   0  0  0  0  0  0  0  0  0  0  0  0
  116.6468  154.3247  176.8907 C   0  0  0  0  0  0  0  0  0  0  0  0
  115.6817  154.0923  175.9133 C   0  0  0  0  0  0  0  0  0  0  0  0
  114.2640  154.2694  176.2353 C   0  0  0  0  0  0  0  0  0  0  0  0
  116.0883  153.7002  174.6629 C   0  0  0  0  0  0  0  0  0  0  0  0
  115.0854  153.4746  173.7021 O   0  0  0  0  0  0  0  0  0  0  0  0
  117.3906  153.5206  174.3087 C   0  0  0  0  0  0  0  0  0  0  0  0
  117.8339  153.0995  172.9680 C   0  0  0  0  0  0  0  0  0  0  0  0
  118.3767  153.7503  175.2798 C   0  0  0  0  0  0  0  0  0  0  0  0
  119.6826  153.5815  174.9575 O   0  0  0  0  0  0  0  0  0  0  0  0
  117.9845  154.1409  176.5296 C   0  0  0  0  0  0  0  0  0  0  0  0
  118.2070  156.3039  178.1916 H   0  0  0  0  0  0  0  0  0  0  0  0
  119.2372  155.4735  179.4736 H   0  0  0  0  0  0  0  0  0  0  0  0
  117.4869  153.7019  179.5263 H   0  0  0  0  0  0  0  0  0  0  0  0
  118.7489  156.0137  180.9647 H   0  0  0  0  0  0  0  0  0  0  0  0
  118.0532  157.3201  182.9573 H   0  0  0  0  0  0  0  0  0  0  0  0
  115.6616  157.3400  184.7184 H   0  0  0  0  0  0  0  0  0  0  0  0
  114.0215  156.4693  182.0654 H   0  0  0  0  0  0  0  0  0  0  0  0
  114.7151  155.1658  180.0770 H   0  0  0  0  0  0  0  0  0  0  0  0
  113.9861  155.3542  176.2937 H   0  0  0  0  0  0  0  0  0  0  0  0
  113.5790  153.8194  175.4676 H   0  0  0  0  0  0  0  0  0  0  0  0
  114.0352  153.8551  177.2523 H   0  0  0  0  0  0  0  0  0  0  0  0
  115.0584  153.9677  172.8322 H   0  0  0  0  0  0  0  0  0  0  0  0
  117.6395  152.0124  172.7885 H   0  0  0  0  0  0  0  0  0  0  0  0
  117.2839  153.6895  172.1948 H   0  0  0  0  0  0  0  0  0  0  0  0
  118.9027  153.3521  172.8537 H   0  0  0  0  0  0  0  0  0  0  0  0
  120.2497  154.0836  174.3602 H   0  0  0  0  0  0  0  0  0  0  0  0
  1  2  2  0
  2  3  1  0
  3  4  1  0
  4  5  1  0
  5  6  2  0
  6  7  1  0
  7  8  2  0
  8  9  1  0
  8 10  1  0
 10 11  2  0
  4 12  1  0
 12 13  1  0
 13 14  2  0
 14 15  1  0
 14 16  1  0
 16 17  1  0
 16 18  2  0
 18 19  1  0
 18 20  1  0
 20 21  1  0
 20 22  2  0
 22  2  1  0
 11  5  1  0
 22 13  1  0
  3 23  1  0
  3 24  1  0
  4 25  1  1
  6 26  1  0
  7 27  1  0
  9 28  1  0
 10 29  1  0
 11 30  1  0
 15 31  1  0
 15 32  1  0
 15 33  1  0
 17 34  1  0
 19 35  1  0
 19 36  1  0
 19 37  1  0
 21 38  1  0
M  END
>  <docking_score>  (1) 
-5.9660000000000002

$$$$

     RDKit          3D

 38 40  0  0  0  0  0  0  0  0999 V2000
  139.0063  152.8032  178.2112 O   0  0  0  0  0  0  0  0  0  0  0  0
  139.1857  152.4634  177.0366 C   0  0  0  0  0  0  0  0  0  0  0  0
  138.8649  151.1150  176.4813 C   0  0  0  0  0  0  0  0  0  0  0  0
  140.1948  150.6233  175.8929 C   0  0  1  0  0  0  0  0  0  0  0  0
  140.0128  149.2118  175.4936 C   0  0  0  0  0  0  0  0  0  0  0  0
  141.0883  148.3538  175.3819 C   0  0  0  0  0  0  0  0  0  0  0  0
  140.9377  147.0327  175.0103 C   0  0  0  0  0  0  0  0  0  0  0  0
  139.6962  146.5013  174.7304 C   0  0  0  0  0  0  0  0  0  0  0  0
  139.5429  145.1613  174.3534 O   0  0  0  0  0  0  0  0  0  0  0  0
  138.6157  147.3514  174.8395 C   0  0  0  0  0  0  0  0  0  0  0  0
  138.7673  148.6747  175.2117 C   0  0  0  0  0  0  0  0  0  0  0  0
  140.5436  151.4582  174.8302 O   0  0  0  0  0  0  0  0  0  0  0  0
  140.4253  152.8295  174.9819 C   0  0  0  0  0  0  0  0  0  0  0  0
  140.9865  153.6819  174.0335 C   0  0  0  0  0  0  0  0  0  0  0  0
  141.6967  153.1209  172.8821 C   0  0  0  0  0  0  0  0  0  0  0  0
  140.8580  155.0372  174.2045 C   0  0  0  0  0  0  0  0  0  0  0  0
  141.4379  155.8663  173.2268 O   0  0  0  0  0  0  0  0  0  0  0  0
  140.2092  155.6127  175.2541 C   0  0  0  0  0  0  0  0  0  0  0  0
  140.0678  157.0671  175.4437 C   0  0  0  0  0  0  0  0  0  0  0  0
  139.6373  154.7701  176.2191 C   0  0  0  0  0  0  0  0  0  0  0  0
  138.9834  155.3129  177.2753 O   0  0  0  0  0  0  0  0  0  0  0  0
  139.7589  153.4179  176.0604 C   0  0  0  0  0  0  0  0  0  0  0  0
  138.1733  151.2301  175.6252 H   0  0  0  0  0  0  0  0  0  0  0  0
  138.4875  150.4214  177.2505 H   0  0  0  0  0  0  0  0  0  0  0  0
  140.9134  150.6553  176.7353 H   0  0  0  0  0  0  0  0  0  0  0  0
  142.0807  148.7320  175.5931 H   0  0  0  0  0  0  0  0  0  0  0  0
  141.7952  146.3587  174.9240 H   0  0  0  0  0  0  0  0  0  0  0  0
  138.6287  144.7136  174.3188 H   0  0  0  0  0  0  0  0  0  0  0  0
  137.6353  146.9772  174.6306 H   0  0  0  0  0  0  0  0  0  0  0  0
  137.9195  149.3452  175.2982 H   0  0  0  0  0  0  0  0  0  0  0  0
  141.4151  152.0499  172.7049 H   0  0  0  0  0  0  0  0  0  0  0  0
  141.4723  153.6586  171.9221 H   0  0  0  0  0  0  0  0  0  0  0  0
  142.8024  153.1038  173.0700 H   0  0  0  0  0  0  0  0  0  0  0  0
  142.4286  155.9492  173.1158 H   0  0  0  0  0  0  0  0  0  0  0  0
  140.2554  157.3680  176.5049 H   0  0  0  0  0  0  0  0  0  0  0  0
  140.8025  157.5980  174.7905 H   0  0  0  0  0  0  0  0  0  0  0  0
  139.0641  157.3724  175.0994 H   0  0  0  0  0  0  0  0  0  0  0  0
  138.0927  155.6773  177.3397 H   0  0  0  0  0  0  0  0  0  0  0  0
  1  2  2  0
  2  3  1  0
  3  4  1  0
  4  5  1  0
  5  6  2  0
  6  7  1  0
  7  8  2  0
  8  9  1  0
  8 10  1  0
 10 11  2  0
  4 12  1  0
 12 13  1  0
 13 14  2  0
 14 15  1  0
 14 16  1  0
 16 17  1  0
 16 18  2  0
 18 19  1  0
 18 20  1  0
 20 21  1  0
 20 22  2  0
 22  2  1  0
 11  5  1  0
 22 13  1  0
  3 23  1  0
  3 24  1  0
  4 25  1  1
  6 26  1  0
  7 27  1  0
  9 28  1  0
 10 29  1  0
 11 30  1  0
 15 31  1  0
 15 32  1  0
 15 33  1  0
 17 34  1  0
 19 35  1  0
 19 36  1  0
 19 37  1  0
 21 38  1  0
M  END
>  <docking_score>  (2) 
-5.8639999999999999

$$$$

     RDKit          3D

 38 40  0  0  0  0  0  0  0  0999 V2000
  119.5534  153.8537  178.1025 O   0  0  0  0  0  0  0  0  0  0  0  0
  118.4937  154.4491  177.8795 C   0  0  0  0  0  0  0  0  0  0  0  0
  117.8304  155.3921  178.8283 C   0  0  0  0  0  0  0  0  0  0  0  0
  116.4250  154.8056  179.0222 C   0  0  1  0  0  0  0  0  0  0  0  0
  115.7648  155.5724  180.0997 C   0  0  0  0  0  0  0  0  0  0  0  0
  114.7599  155.0149  180.8644 C   0  0  0  0  0  0  0  0  0  0  0  0
  114.1319  155.7156  181.8748 C   0  0  0  0  0  0  0  0  0  0  0  0
  114.4802  157.0165  182.1719 C   0  0  0  0  0  0  0  0  0  0  0  0
  113.8436  157.7277  183.1966 O   0  0  0  0  0  0  0  0  0  0  0  0
  115.4835  157.5816  181.4129 C   0  0  0  0  0  0  0  0  0  0  0  0
  116.1122  156.8792  180.4009 C   0  0  0  0  0  0  0  0  0  0  0  0
  115.7477  154.8687  177.8034 O   0  0  0  0  0  0  0  0  0  0  0  0
  116.4035  154.4848  176.6458 C   0  0  0  0  0  0  0  0  0  0  0  0
  115.6824  154.3134  175.4661 C   0  0  0  0  0  0  0  0  0  0  0  0
  114.2357  154.5416  175.4590 C   0  0  0  0  0  0  0  0  0  0  0  0
  116.3525  153.9317  174.3314 C   0  0  0  0  0  0  0  0  0  0  0  0
  115.5912  153.7682  173.1595 O   0  0  0  0  0  0  0  0  0  0  0  0
  117.6943  153.7063  174.2806 C   0  0  0  0  0  0  0  0  0  0  0  0
  118.4200  153.2961  173.0655 C   0  0  0  0  0  0  0  0  0  0  0  0
  118.4371  153.8744  175.4588 C   0  0  0  0  0  0  0  0  0  0  0  0
  119.7754  153.6589  175.4402 O   0  0  0  0  0  0  0  0  0  0  0  0
  117.7810  154.2540  176.5963 C   0  0  0  0  0  0  0  0  0  0  0  0
  117.6898  156.3698  178.3297 H   0  0  0  0  0  0  0  0  0  0  0  0
  118.3665  155.4705  179.7883 H   0  0  0  0  0  0  0  0  0  0  0  0
  116.5903  153.7716  179.3838 H   0  0  0  0  0  0  0  0  0  0  0  0
  114.4566  153.9952  180.6630 H   0  0  0  0  0  0  0  0  0  0  0  0
  113.3361  155.2668  182.4765 H   0  0  0  0  0  0  0  0  0  0  0  0
  114.3670  158.2808  183.8729 H   0  0  0  0  0  0  0  0  0  0  0  0
  115.7828  158.5894  181.6123 H   0  0  0  0  0  0  0  0  0  0  0  0
  116.9012  157.3212  179.8027 H   0  0  0  0  0  0  0  0  0  0  0  0
  113.9039  155.0590  174.5211 H   0  0  0  0  0  0  0  0  0  0  0  0
  113.6402  153.5910  175.5107 H   0  0  0  0  0  0  0  0  0  0  0  0
  113.9408  155.2321  176.2923 H   0  0  0  0  0  0  0  0  0  0  0  0
  115.9535  153.3117  172.3464 H   0  0  0  0  0  0  0  0  0  0  0  0
  118.4041  154.0951  172.2824 H   0  0  0  0  0  0  0  0  0  0  0  0
  119.4842  153.0780  173.3266 H   0  0  0  0  0  0  0  0  0  0  0  0
  117.9868  152.3493  172.6979 H   0  0  0  0  0  0  0  0  0  0  0  0
  120.3333  153.2446  174.7712 H   0  0  0  0  0  0  0  0  0  0  0  0
  1  2  2  0
  2  3  1  0
  3  4  1  0
  4  5  1  0
  5  6  2  0
  6  7  1  0
  7  8  2  0
  8  9  1  0
  8 10  1  0
 10 11  2  0
  4 12  1  0
 12 13  1  0
 13 14  2  0
 14 15  1  0
 14 16  1  0
 16 17  1  0
 16 18  2  0
 18 19  1  0
 18 20  1  0
 20 21  1  0
 20 22  2  0
 22  2  1  0
 11  5  1  0
 22 13  1  0
  3 23  1  0
  3 24  1  0
  4 25  1  1
  6 26  1  0
  7 27  1  0
  9 28  1  0
 10 29  1  0
 11 30  1  0
 15 31  1  0
 15 32  1  0
 15 33  1  0
 17 34  1  0
 19 35  1  0
 19 36  1  0
 19 37  1  0
 21 38  1  0
M  END
>  <docking_score>  (3) 
-5.8170000000000002

$$$$
