
     RDKit          3D

 82 85  0  0  0  0  0  0  0  0999 V2000
  138.6240  150.2003  196.0752 C   0  0  0  0  0  0  0  0  0  0  0  0
  138.2166  151.4810  195.4143 C   0  0  1  0  0  0  0  0  0  0  0  0
  137.2295  152.3006  196.2278 C   0  0  1  0  0  0  0  0  0  0  0  0
  136.1676  151.5437  196.8609 C   0  0  2  0  0  0  0  0  0  0  0  0
  134.7794  151.8212  196.3310 C   0  0  0  0  0  0  0  0  0  0  0  0
  136.0590  151.5123  198.3475 C   0  0  1  0  0  0  0  0  0  0  0  0
  135.2380  152.4498  198.9073 O   0  0  0  0  0  0  0  0  0  0  0  0
  135.7298  150.0988  198.8587 C   0  0  2  0  0  0  0  0  0  0  0  0
  134.4699  150.0408  199.4192 O   0  0  0  0  0  0  0  0  0  0  0  0
  136.8156  149.6940  199.8075 C   0  0  2  0  0  0  0  0  0  0  0  0
  137.9200  150.7220  199.7549 C   0  0  0  0  0  0  0  0  0  0  0  0
  137.3772  148.3361  199.4911 C   0  0  0  0  0  0  0  0  0  0  0  0
  138.8933  148.4702  199.4106 C   0  0  0  0  0  0  0  0  0  0  0  0
  136.8137  147.7736  198.2049 C   0  0  0  0  0  0  0  0  0  0  0  0
  139.3645  152.4832  195.3320 C   0  0  1  0  0  0  0  0  0  0  0  0
  139.5116  152.8190  196.7552 C   0  0  0  0  0  0  0  0  0  0  0  0
  138.0453  153.2475  197.0144 C   0  0  0  0  0  0  0  0  0  0  0  0
  140.5350  152.0627  194.5618 C   0  0  2  0  0  0  0  0  0  0  0  0
  141.6234  153.0808  194.6828 C   0  0  0  0  0  0  0  0  0  0  0  0
  141.5736  154.0538  193.6645 O   0  0  0  0  0  0  0  0  0  0  0  0
  141.8763  153.9019  192.3388 C   0  0  0  0  0  0  0  0  0  0  0  0
  142.3994  154.9074  191.7970 O   0  0  0  0  0  0  0  0  0  0  0  0
  140.0480  151.8800  193.1283 C   0  0  1  0  0  0  0  0  0  0  0  0
  141.1071  151.5390  192.1521 C   0  0  2  0  0  0  0  0  0  0  0  0
  141.6879  152.7630  191.4597 C   0  0  2  0  0  0  0  0  0  0  0  0
  142.8668  152.3522  190.6432 C   0  0  0  0  0  0  0  0  0  0  0  0
  142.3987  151.4727  189.5363 C   0  0  2  0  0  0  0  0  0  0  0  0
  141.9355  152.2781  188.4943 O   0  0  0  0  0  0  0  0  0  0  0  0
  141.4113  150.4259  189.8962 C   0  0  2  0  0  0  0  0  0  0  0  0
  140.6052  150.2268  188.7422 O   0  0  0  0  0  0  0  0  0  0  0  0
  140.4594  150.7513  191.0007 C   0  0  0  0  0  0  0  0  0  0  0  0
  142.1891  150.6218  192.6859 C   0  0  0  0  0  0  0  0  0  0  0  0
  138.9231  150.9203  193.0714 C   0  0  0  0  0  0  0  0  0  0  0  0
  137.7885  151.2128  194.0169 C   0  0  0  0  0  0  0  0  0  0  0  0
  139.0945  149.5506  195.3078 H   0  0  0  0  0  0  0  0  0  0  0  0
  139.4145  150.3318  196.8428 H   0  0  0  0  0  0  0  0  0  0  0  0
  137.8238  149.6509  196.5845 H   0  0  0  0  0  0  0  0  0  0  0  0
  136.7265  152.9162  195.4038 H   0  0  0  0  0  0  0  0  0  0  0  0
  136.3277  150.4541  196.5580 H   0  0  0  0  0  0  0  0  0  0  0  0
  134.4895  151.1170  195.5155 H   0  0  0  0  0  0  0  0  0  0  0  0
  134.6279  152.8749  196.0151 H   0  0  0  0  0  0  0  0  0  0  0  0
  134.0607  151.6146  197.1469 H   0  0  0  0  0  0  0  0  0  0  0  0
  137.0700  151.6852  198.7622 H   0  0  0  0  0  0  0  0  0  0  0  0
  135.6637  153.3114  199.1215 H   0  0  0  0  0  0  0  0  0  0  0  0
  135.7557  149.4332  197.9808 H   0  0  0  0  0  0  0  0  0  0  0  0
  133.8006  149.9049  198.7094 H   0  0  0  0  0  0  0  0  0  0  0  0
  136.4019  149.7024  200.8328 H   0  0  0  0  0  0  0  0  0  0  0  0
  137.8609  151.4190  200.6395 H   0  0  0  0  0  0  0  0  0  0  0  0
  138.9212  150.2782  199.6881 H   0  0  0  0  0  0  0  0  0  0  0  0
  137.8121  151.4221  198.8817 H   0  0  0  0  0  0  0  0  0  0  0  0
  137.1696  147.5933  200.2871 H   0  0  0  0  0  0  0  0  0  0  0  0
  139.2705  148.7646  200.4185 H   0  0  0  0  0  0  0  0  0  0  0  0
  139.1914  149.2232  198.6593 H   0  0  0  0  0  0  0  0  0  0  0  0
  139.3756  147.4860  199.1829 H   0  0  0  0  0  0  0  0  0  0  0  0
  137.6661  147.4336  197.5912 H   0  0  0  0  0  0  0  0  0  0  0  0
  136.3121  148.5768  197.6286 H   0  0  0  0  0  0  0  0  0  0  0  0
  136.0683  146.9788  198.3831 H   0  0  0  0  0  0  0  0  0  0  0  0
  138.9093  153.3810  194.8157 H   0  0  0  0  0  0  0  0  0  0  0  0
  139.6617  151.9287  197.4222 H   0  0  0  0  0  0  0  0  0  0  0  0
  140.1122  153.6689  197.0474 H   0  0  0  0  0  0  0  0  0  0  0  0
  138.0149  154.2893  196.5660 H   0  0  0  0  0  0  0  0  0  0  0  0
  137.8613  153.3912  198.0617 H   0  0  0  0  0  0  0  0  0  0  0  0
  140.9728  151.1220  194.9582 H   0  0  0  0  0  0  0  0  0  0  0  0
  141.5485  153.6777  195.6366 H   0  0  0  0  0  0  0  0  0  0  0  0
  142.6482  152.6155  194.7957 H   0  0  0  0  0  0  0  0  0  0  0  0
  139.6393  152.8933  192.8389 H   0  0  0  0  0  0  0  0  0  0  0  0
  140.9019  153.0867  190.7089 H   0  0  0  0  0  0  0  0  0  0  0  0
  143.2661  153.2926  190.1625 H   0  0  0  0  0  0  0  0  0  0  0  0
  143.7113  151.9346  191.2077 H   0  0  0  0  0  0  0  0  0  0  0  0
  143.3043  150.9450  189.1163 H   0  0  0  0  0  0  0  0  0  0  0  0
  141.0550  151.9344  188.1609 H   0  0  0  0  0  0  0  0  0  0  0  0
  141.9104  149.4208  190.0224 H   0  0  0  0  0  0  0  0  0  0  0  0
  140.2210  149.3179  188.8156 H   0  0  0  0  0  0  0  0  0  0  0  0
  139.7242  151.4876  190.5565 H   0  0  0  0  0  0  0  0  0  0  0  0
  139.9944  149.8279  191.3423 H   0  0  0  0  0  0  0  0  0  0  0  0
  143.2109  151.1021  192.6116 H   0  0  0  0  0  0  0  0  0  0  0  0
  142.0858  150.3826  193.7555 H   0  0  0  0  0  0  0  0  0  0  0  0
  142.2746  149.7222  192.0448 H   0  0  0  0  0  0  0  0  0  0  0  0
  138.4531  150.9566  192.0467 H   0  0  0  0  0  0  0  0  0  0  0  0
  139.2941  149.8987  193.3099 H   0  0  0  0  0  0  0  0  0  0  0  0
  137.1085  152.0084  193.6088 H   0  0  0  0  0  0  0  0  0  0  0  0
  137.1677  150.2762  194.0189 H   0  0  0  0  0  0  0  0  0  0  0  0
  2  1  1  1
  2  3  1  0
  3  4  1  0
  4  5  1  0
  4  6  1  0
  6  7  1  0
  6  8  1  0
  8  9  1  0
  8 10  1  0
 10 11  1  0
 10 12  1  0
 12 13  1  0
 12 14  1  0
  2 15  1  0
 15 16  1  0
 16 17  1  0
 15 18  1  0
 18 19  1  0
 19 20  1  0
 20 21  1  0
 21 22  2  0
 18 23  1  0
 23 24  1  0
 24 25  1  0
 25 26  1  0
 26 27  1  0
 27 28  1  0
 27 29  1  0
 29 30  1  0
 29 31  1  0
 24 32  1  1
 23 33  1  0
 33 34  1  0
 34  2  1  0
 17  3  1  0
 25 21  1  0
 31 24  1  0
  1 35  1  0
  1 36  1  0
  1 37  1  0
  3 38  1  6
  4 39  1  6
  5 40  1  0
  5 41  1  0
  5 42  1  0
  6 43  1  1
  7 44  1  0
  8 45  1  6
  9 46  1  0
 10 47  1  1
 11 48  1  0
 11 49  1  0
 11 50  1  0
 12 51  1  0
 13 52  1  0
 13 53  1  0
 13 54  1  0
 14 55  1  0
 14 56  1  0
 14 57  1  0
 15 58  1  6
 16 59  1  0
 16 60  1  0
 17 61  1  0
 17 62  1  0
 18 63  1  1
 19 64  1  0
 19 65  1  0
 23 66  1  6
 25 67  1  6
 26 68  1  0
 26 69  1  0
 27 70  1  6
 28 71  1  0
 29 72  1  1
 30 73  1  0
 31 74  1  0
 31 75  1  0
 32 76  1  0
 32 77  1  0
 32 78  1  0
 33 79  1  0
 33 80  1  0
 34 81  1  0
 34 82  1  0
M  END
>  <docking_score>  (1) 
-4.7320000000000002

$$$$

     RDKit          3D

 82 85  0  0  0  0  0  0  0  0999 V2000
  136.3446  150.0594  193.7451 C   0  0  0  0  0  0  0  0  0  0  0  0
  136.4599  148.8053  194.5557 C   0  0  1  0  0  0  0  0  0  0  0  0
  137.0634  147.6385  193.7926 C   0  0  1  0  0  0  0  0  0  0  0  0
  136.5920  147.4770  192.4313 C   0  0  2  0  0  0  0  0  0  0  0  0
  135.6260  146.3337  192.2193 C   0  0  0  0  0  0  0  0  0  0  0  0
  137.5684  147.4255  191.3057 C   0  0  1  0  0  0  0  0  0  0  0  0
  137.5996  146.2601  190.5936 O   0  0  0  0  0  0  0  0  0  0  0  0
  137.4264  148.6467  190.3804 C   0  0  2  0  0  0  0  0  0  0  0  0
  136.7240  148.3372  189.2334 O   0  0  0  0  0  0  0  0  0  0  0  0
  138.8020  149.1710  190.1052 C   0  0  2  0  0  0  0  0  0  0  0  0
  139.7777  148.5019  191.0430 C   0  0  0  0  0  0  0  0  0  0  0  0
  138.8906  150.6627  190.2677 C   0  0  0  0  0  0  0  0  0  0  0  0
  140.0580  151.1516  189.4185 C   0  0  0  0  0  0  0  0  0  0  0  0
  139.0659  151.0673  191.7147 C   0  0  0  0  0  0  0  0  0  0  0  0
  137.4892  148.9298  195.6754 C   0  0  1  0  0  0  0  0  0  0  0  0
  138.7243  148.9846  194.8809 C   0  0  0  0  0  0  0  0  0  0  0  0
  138.5106  147.6728  194.0844 C   0  0  0  0  0  0  0  0  0  0  0  0
  137.2281  149.9597  196.6811 C   0  0  2  0  0  0  0  0  0  0  0  0
  138.3799  150.0563  197.6297 C   0  0  0  0  0  0  0  0  0  0  0  0
  138.2273  149.2244  198.7570 O   0  0  0  0  0  0  0  0  0  0  0  0
  137.3627  149.3781  199.8064 C   0  0  0  0  0  0  0  0  0  0  0  0
  137.8060  148.9946  200.9175 O   0  0  0  0  0  0  0  0  0  0  0  0
  135.9265  149.5550  197.3650 C   0  0  1  0  0  0  0  0  0  0  0  0
  135.5219  150.4244  198.4925 C   0  0  2  0  0  0  0  0  0  0  0  0
  136.0145  149.9134  199.8383 C   0  0  2  0  0  0  0  0  0  0  0  0
  135.7310  150.9368  200.8860 C   0  0  0  0  0  0  0  0  0  0  0  0
  134.2555  151.0649  201.0422 C   0  0  2  0  0  0  0  0  0  0  0  0
  133.8083  150.0489  201.8888 O   0  0  0  0  0  0  0  0  0  0  0  0
  133.4606  151.1211  199.7912 C   0  0  2  0  0  0  0  0  0  0  0  0
  132.2016  150.5343  200.0939 O   0  0  0  0  0  0  0  0  0  0  0  0
  133.9909  150.3554  198.6232 C   0  0  0  0  0  0  0  0  0  0  0  0
  135.8261  151.8965  198.2983 C   0  0  0  0  0  0  0  0  0  0  0  0
  134.8367  149.4003  196.3762 C   0  0  0  0  0  0  0  0  0  0  0  0
  135.1590  148.5061  195.2085 C   0  0  0  0  0  0  0  0  0  0  0  0
  137.1592  150.7467  194.0553 H   0  0  0  0  0  0  0  0  0  0  0  0
  136.5192  149.9015  192.6607 H   0  0  0  0  0  0  0  0  0  0  0  0
  135.3807  150.5782  193.8038 H   0  0  0  0  0  0  0  0  0  0  0  0
  136.6376  146.7517  194.3784 H   0  0  0  0  0  0  0  0  0  0  0  0
  135.9397  148.3878  192.2090 H   0  0  0  0  0  0  0  0  0  0  0  0
  136.1498  145.3692  192.0186 H   0  0  0  0  0  0  0  0  0  0  0  0
  134.8619  146.5377  191.4399 H   0  0  0  0  0  0  0  0  0  0  0  0
  135.0889  146.1665  193.1724 H   0  0  0  0  0  0  0  0  0  0  0  0
  138.5798  147.5665  191.7313 H   0  0  0  0  0  0  0  0  0  0  0  0
  138.4950  145.8782  190.4459 H   0  0  0  0  0  0  0  0  0  0  0  0
  136.8612  149.4052  190.9457 H   0  0  0  0  0  0  0  0  0  0  0  0
  136.8219  147.3769  189.0373 H   0  0  0  0  0  0  0  0  0  0  0  0
  139.0826  148.8858  189.0744 H   0  0  0  0  0  0  0  0  0  0  0  0
  140.7639  149.0488  191.0520 H   0  0  0  0  0  0  0  0  0  0  0  0
  139.3928  148.3974  192.0651 H   0  0  0  0  0  0  0  0  0  0  0  0
  140.0694  147.4732  190.6950 H   0  0  0  0  0  0  0  0  0  0  0  0
  137.9886  151.1864  189.8926 H   0  0  0  0  0  0  0  0  0  0  0  0
  140.9015  151.4089  190.1017 H   0  0  0  0  0  0  0  0  0  0  0  0
  139.7757  152.0332  188.8156 H   0  0  0  0  0  0  0  0  0  0  0  0
  140.4445  150.3378  188.7541 H   0  0  0  0  0  0  0  0  0  0  0  0
  139.4338  152.1082  191.7247 H   0  0  0  0  0  0  0  0  0  0  0  0
  139.8566  150.4501  192.1869 H   0  0  0  0  0  0  0  0  0  0  0  0
  138.1429  150.9318  192.3053 H   0  0  0  0  0  0  0  0  0  0  0  0
  137.4596  147.9225  196.1896 H   0  0  0  0  0  0  0  0  0  0  0  0
  138.7281  149.7872  194.0961 H   0  0  0  0  0  0  0  0  0  0  0  0
  139.6823  148.8688  195.3681 H   0  0  0  0  0  0  0  0  0  0  0  0
  138.7971  146.8796  194.8436 H   0  0  0  0  0  0  0  0  0  0  0  0
  139.2315  147.5747  193.2958 H   0  0  0  0  0  0  0  0  0  0  0  0
  137.1429  150.9688  196.2249 H   0  0  0  0  0  0  0  0  0  0  0  0
  139.3484  149.7136  197.1648 H   0  0  0  0  0  0  0  0  0  0  0  0
  138.6340  151.1241  197.9031 H   0  0  0  0  0  0  0  0  0  0  0  0
  136.1400  148.5304  197.7920 H   0  0  0  0  0  0  0  0  0  0  0  0
  135.3451  149.0333  200.0906 H   0  0  0  0  0  0  0  0  0  0  0  0
  136.1241  150.5170  201.8576 H   0  0  0  0  0  0  0  0  0  0  0  0
  136.2436  151.8996  200.7582 H   0  0  0  0  0  0  0  0  0  0  0  0
  134.0561  152.0228  201.6059 H   0  0  0  0  0  0  0  0  0  0  0  0
  133.8857  150.3404  202.8447 H   0  0  0  0  0  0  0  0  0  0  0  0
  133.1796  152.1842  199.5341 H   0  0  0  0  0  0  0  0  0  0  0  0
  131.5930  150.7635  199.3482 H   0  0  0  0  0  0  0  0  0  0  0  0
  133.7942  149.2673  198.8629 H   0  0  0  0  0  0  0  0  0  0  0  0
  133.4837  150.6988  197.7229 H   0  0  0  0  0  0  0  0  0  0  0  0
  136.6163  152.0531  197.5037 H   0  0  0  0  0  0  0  0  0  0  0  0
  134.9690  152.4872  197.9400 H   0  0  0  0  0  0  0  0  0  0  0  0
  136.2891  152.3126  199.2148 H   0  0  0  0  0  0  0  0  0  0  0  0
  133.9503  148.9091  196.8715 H   0  0  0  0  0  0  0  0  0  0  0  0
  134.5670  150.3970  195.9616 H   0  0  0  0  0  0  0  0  0  0  0  0
  135.0457  147.4215  195.4781 H   0  0  0  0  0  0  0  0  0  0  0  0
  134.3433  148.7041  194.4614 H   0  0  0  0  0  0  0  0  0  0  0  0
  2  1  1  6
  2  3  1  0
  3  4  1  0
  4  5  1  0
  4  6  1  0
  6  7  1  0
  6  8  1  0
  8  9  1  0
  8 10  1  0
 10 11  1  0
 10 12  1  0
 12 13  1  0
 12 14  1  0
  2 15  1  0
 15 16  1  0
 16 17  1  0
 15 18  1  0
 18 19  1  0
 19 20  1  0
 20 21  1  0
 21 22  2  0
 18 23  1  0
 23 24  1  0
 24 25  1  0
 25 26  1  0
 26 27  1  0
 27 28  1  0
 27 29  1  0
 29 30  1  0
 29 31  1  0
 24 32  1  6
 23 33  1  0
 33 34  1  0
 34  2  1  0
 17  3  1  0
 25 21  1  0
 31 24  1  0
  1 35  1  0
  1 36  1  0
  1 37  1  0
  3 38  1  1
  4 39  1  6
  5 40  1  0
  5 41  1  0
  5 42  1  0
  6 43  1  1
  7 44  1  0
  8 45  1  1
  9 46  1  0
 10 47  1  6
 11 48  1  0
 11 49  1  0
 11 50  1  0
 12 51  1  0
 13 52  1  0
 13 53  1  0
 13 54  1  0
 14 55  1  0
 14 56  1  0
 14 57  1  0
 15 58  1  1
 16 59  1  0
 16 60  1  0
 17 61  1  0
 17 62  1  0
 18 63  1  6
 19 64  1  0
 19 65  1  0
 23 66  1  1
 25 67  1  1
 26 68  1  0
 26 69  1  0
 27 70  1  1
 28 71  1  0
 29 72  1  6
 30 73  1  0
 31 74  1  0
 31 75  1  0
 32 76  1  0
 32 77  1  0
 32 78  1  0
 33 79  1  0
 33 80  1  0
 34 81  1  0
 34 82  1  0
M  END
>  <docking_score>  (2) 
-4.7160000000000002

$$$$

     RDKit          3D

 82 85  0  0  0  0  0  0  0  0999 V2000
  138.7632  148.5447  195.2381 C   0  0  0  0  0  0  0  0  0  0  0  0
  138.0252  148.8020  193.9606 C   0  0  1  0  0  0  0  0  0  0  0  0
  136.6154  149.3298  194.1656 C   0  0  1  0  0  0  0  0  0  0  0  0
  135.8587  148.6849  195.2206 C   0  0  2  0  0  0  0  0  0  0  0  0
  134.6470  147.9089  194.7573 C   0  0  0  0  0  0  0  0  0  0  0  0
  135.4337  149.4661  196.4173 C   0  0  1  0  0  0  0  0  0  0  0  0
  134.1122  149.3765  196.7519 O   0  0  0  0  0  0  0  0  0  0  0  0
  136.3410  149.1818  197.6271 C   0  0  2  0  0  0  0  0  0  0  0  0
  135.6286  148.6533  198.6844 O   0  0  0  0  0  0  0  0  0  0  0  0
  137.0504  150.4547  197.9726 C   0  0  2  0  0  0  0  0  0  0  0  0
  137.3958  150.4394  199.4421 C   0  0  0  0  0  0  0  0  0  0  0  0
  136.2266  151.6730  197.6623 C   0  0  0  0  0  0  0  0  0  0  0  0
  137.1800  152.7723  197.2088 C   0  0  0  0  0  0  0  0  0  0  0  0
  135.4068  152.1228  198.8513 C   0  0  0  0  0  0  0  0  0  0  0  0
  138.6157  149.9682  193.1731 C   0  0  1  0  0  0  0  0  0  0  0  0
  138.2484  151.0838  194.0565 C   0  0  0  0  0  0  0  0  0  0  0  0
  136.7260  150.8016  194.1161 C   0  0  0  0  0  0  0  0  0  0  0  0
  140.0038  149.8158  192.7369 C   0  0  2  0  0  0  0  0  0  0  0  0
  140.4856  151.0813  192.1025 C   0  0  0  0  0  0  0  0  0  0  0  0
  140.2783  151.1040  190.7087 O   0  0  0  0  0  0  0  0  0  0  0  0
  140.9343  150.3839  189.7478 C   0  0  0  0  0  0  0  0  0  0  0  0
  141.0937  150.9824  188.6548 O   0  0  0  0  0  0  0  0  0  0  0  0
  140.0126  148.6293  191.7791 C   0  0  1  0  0  0  0  0  0  0  0  0
  141.3207  148.3555  191.1428 C   0  0  2  0  0  0  0  0  0  0  0  0
  141.4742  149.0378  189.7915 C   0  0  2  0  0  0  0  0  0  0  0  0
  142.8769  148.8691  189.3127 C   0  0  0  0  0  0  0  0  0  0  0  0
  143.1191  147.4249  189.0416 C   0  0  2  0  0  0  0  0  0  0  0  0
  142.6299  147.1233  187.7693 O   0  0  0  0  0  0  0  0  0  0  0  0
  142.6186  146.4683  190.0589 C   0  0  2  0  0  0  0  0  0  0  0  0
  142.2878  145.2779  189.3557 O   0  0  0  0  0  0  0  0  0  0  0  0
  141.3787  146.8583  190.7953 C   0  0  0  0  0  0  0  0  0  0  0  0
  142.5217  148.5903  192.0370 C   0  0  0  0  0  0  0  0  0  0  0  0
  139.4584  147.4215  192.4299 C   0  0  0  0  0  0  0  0  0  0  0  0
  138.1129  147.6090  193.0790 C   0  0  0  0  0  0  0  0  0  0  0  0
  138.9865  147.4588  195.2947 H   0  0  0  0  0  0  0  0  0  0  0  0
  139.7601  149.0303  195.2773 H   0  0  0  0  0  0  0  0  0  0  0  0
  138.2557  148.8661  196.1551 H   0  0  0  0  0  0  0  0  0  0  0  0
  136.1187  149.0109  193.1845 H   0  0  0  0  0  0  0  0  0  0  0  0
  136.5295  147.8589  195.6358 H   0  0  0  0  0  0  0  0  0  0  0  0
  133.7965  147.9845  195.4755 H   0  0  0  0  0  0  0  0  0  0  0  0
  134.8663  146.8475  194.5153 H   0  0  0  0  0  0  0  0  0  0  0  0
  134.2745  148.3883  193.8320 H   0  0  0  0  0  0  0  0  0  0  0  0
  135.6393  150.5336  196.2122 H   0  0  0  0  0  0  0  0  0  0  0  0
  133.7233  148.4734  196.7016 H   0  0  0  0  0  0  0  0  0  0  0  0
  137.0831  148.4376  197.2953 H   0  0  0  0  0  0  0  0  0  0  0  0
  134.8774  148.1176  198.3394 H   0  0  0  0  0  0  0  0  0  0  0  0
  138.0005  150.4870  197.4079 H   0  0  0  0  0  0  0  0  0  0  0  0
  138.0839  151.2946  199.7008 H   0  0  0  0  0  0  0  0  0  0  0  0
  136.5133  150.4523  200.0940 H   0  0  0  0  0  0  0  0  0  0  0  0
  138.0036  149.5382  199.7299 H   0  0  0  0  0  0  0  0  0  0  0  0
  135.5186  151.5069  196.8258 H   0  0  0  0  0  0  0  0  0  0  0  0
  137.9431  152.9228  198.0086 H   0  0  0  0  0  0  0  0  0  0  0  0
  136.6417  153.7175  197.0155 H   0  0  0  0  0  0  0  0  0  0  0  0
  137.7530  152.4618  196.2987 H   0  0  0  0  0  0  0  0  0  0  0  0
  135.0860  153.1614  198.6580 H   0  0  0  0  0  0  0  0  0  0  0  0
  136.0426  152.1541  199.7590 H   0  0  0  0  0  0  0  0  0  0  0  0
  134.5619  151.4440  199.0620 H   0  0  0  0  0  0  0  0  0  0  0  0
  137.9640  150.0355  192.2508 H   0  0  0  0  0  0  0  0  0  0  0  0
  138.5944  150.9603  195.1172 H   0  0  0  0  0  0  0  0  0  0  0  0
  138.3354  152.1012  193.7018 H   0  0  0  0  0  0  0  0  0  0  0  0
  136.3654  151.2089  193.1203 H   0  0  0  0  0  0  0  0  0  0  0  0
  136.2457  151.4127  194.8557 H   0  0  0  0  0  0  0  0  0  0  0  0
  140.6884  149.6426  193.5943 H   0  0  0  0  0  0  0  0  0  0  0  0
  139.9296  151.9878  192.4774 H   0  0  0  0  0  0  0  0  0  0  0  0
  141.5477  151.3402  192.3928 H   0  0  0  0  0  0  0  0  0  0  0  0
  139.2959  148.9261  190.9570 H   0  0  0  0  0  0  0  0  0  0  0  0
  140.8380  148.4327  189.0737 H   0  0  0  0  0  0  0  0  0  0  0  0
  142.9413  149.4002  188.3184 H   0  0  0  0  0  0  0  0  0  0  0  0
  143.6502  149.3332  189.9394 H   0  0  0  0  0  0  0  0  0  0  0  0
  144.2360  147.2764  188.9671 H   0  0  0  0  0  0  0  0  0  0  0  0
  141.6377  146.9862  187.8073 H   0  0  0  0  0  0  0  0  0  0  0  0
  143.4508  146.1263  190.7412 H   0  0  0  0  0  0  0  0  0  0  0  0
  141.6031  144.8088  189.8945 H   0  0  0  0  0  0  0  0  0  0  0  0
  140.5345  146.7255  190.0538 H   0  0  0  0  0  0  0  0  0  0  0  0
  141.2842  146.2258  191.6765 H   0  0  0  0  0  0  0  0  0  0  0  0
  142.2369  148.5439  193.1311 H   0  0  0  0  0  0  0  0  0  0  0  0
  143.3107  147.8292  191.9360 H   0  0  0  0  0  0  0  0  0  0  0  0
  142.8957  149.6251  191.9066 H   0  0  0  0  0  0  0  0  0  0  0  0
  139.2874  146.6233  191.6515 H   0  0  0  0  0  0  0  0  0  0  0  0
  140.1584  147.0714  193.2208 H   0  0  0  0  0  0  0  0  0  0  0  0
  137.2825  147.5628  192.3239 H   0  0  0  0  0  0  0  0  0  0  0  0
  137.9726  146.6955  193.7181 H   0  0  0  0  0  0  0  0  0  0  0  0
  2  1  1  1
  2  3  1  0
  3  4  1  0
  4  5  1  0
  4  6  1  0
  6  7  1  0
  6  8  1  0
  8  9  1  0
  8 10  1  0
 10 11  1  0
 10 12  1  0
 12 13  1  0
 12 14  1  0
  2 15  1  0
 15 16  1  0
 16 17  1  0
 15 18  1  0
 18 19  1  0
 19 20  1  0
 20 21  1  0
 21 22  2  0
 18 23  1  0
 23 24  1  0
 24 25  1  0
 25 26  1  0
 26 27  1  0
 27 28  1  0
 27 29  1  0
 29 30  1  0
 29 31  1  0
 24 32  1  1
 23 33  1  0
 33 34  1  0
 34  2  1  0
 17  3  1  0
 25 21  1  0
 31 24  1  0
  1 35  1  0
  1 36  1  0
  1 37  1  0
  3 38  1  6
  4 39  1  1
  5 40  1  0
  5 41  1  0
  5 42  1  0
  6 43  1  6
  7 44  1  0
  8 45  1  6
  9 46  1  0
 10 47  1  6
 11 48  1  0
 11 49  1  0
 11 50  1  0
 12 51  1  0
 13 52  1  0
 13 53  1  0
 13 54  1  0
 14 55  1  0
 14 56  1  0
 14 57  1  0
 15 58  1  6
 16 59  1  0
 16 60  1  0
 17 61  1  0
 17 62  1  0
 18 63  1  1
 19 64  1  0
 19 65  1  0
 23 66  1  6
 25 67  1  6
 26 68  1  0
 26 69  1  0
 27 70  1  6
 28 71  1  0
 29 72  1  1
 30 73  1  0
 31 74  1  0
 31 75  1  0
 32 76  1  0
 32 77  1  0
 32 78  1  0
 33 79  1  0
 33 80  1  0
 34 81  1  0
 34 82  1  0
M  END
>  <docking_score>  (3) 
-4.3289999999999997

$$$$
