
     RDKit          3D

 69 73  0  0  0  0  0  0  0  0999 V2000
  142.8087  148.3203  189.7685 O   0  0  0  0  0  0  0  0  0  0  0  0
  141.5211  148.8661  189.6986 C   0  0  1  0  0  0  0  0  0  0  0  0
  141.1336  149.4453  191.0196 C   0  0  2  0  0  0  0  0  0  0  0  0
  139.7311  150.0364  191.0256 C   0  0  2  0  0  0  0  0  0  0  0  0
  139.0222  149.7978  192.2947 C   0  0  0  0  0  0  0  0  0  0  0  0
  138.8356  150.8389  193.1783 C   0  0  0  0  0  0  0  0  0  0  0  0
  139.3709  152.1816  192.8398 C   0  0  0  0  0  0  0  0  0  0  0  0
  138.1712  150.6929  194.3744 C   0  0  0  0  0  0  0  0  0  0  0  0
  137.6638  149.4736  194.7272 C   0  0  0  0  0  0  0  0  0  0  0  0
  137.8307  148.4110  193.8708 C   0  0  0  0  0  0  0  0  0  0  0  0
  138.5043  148.5756  192.6662 C   0  0  0  0  0  0  0  0  0  0  0  0
  137.0008  149.5696  196.0515 C   0  0  2  0  0  0  0  0  0  0  0  0
  135.7338  148.8246  196.1946 C   0  0  0  0  0  0  0  0  0  0  0  0
  134.8425  149.4748  197.1911 C   0  0  0  0  0  0  0  0  0  0  0  0
  135.1225  150.6045  197.8039 C   0  0  0  0  0  0  0  0  0  0  0  0
  134.1860  151.1818  198.7752 C   0  0  0  0  0  0  0  0  0  0  0  0
  134.7952  152.1325  199.7504 C   0  0  1  0  0  0  0  0  0  0  0  0
  135.2935  151.4440  200.8854 O   0  0  0  0  0  0  0  0  0  0  0  0
  135.7563  153.1153  199.1874 C   0  0  0  0  0  0  0  0  0  0  0  0
  136.0994  152.8041  197.7344 C   0  0  0  0  0  0  0  0  0  0  0  0
  136.4028  151.3588  197.5368 C   0  0  1  0  0  0  0  0  0  0  0  0
  137.4449  150.8030  198.4604 C   0  0  0  0  0  0  0  0  0  0  0  0
  136.6707  151.0637  196.0881 C   0  0  1  0  0  0  0  0  0  0  0  0
  137.8606  151.6819  195.4809 C   0  0  0  0  0  0  0  0  0  0  0  0
  138.9184  149.4237  189.8747 C   0  0  0  0  0  0  0  0  0  0  0  0
  142.1345  150.3899  191.4166 N   0  0  0  0  0  0  0  0  0  0  0  0
  142.9372  150.8819  190.3379 C   0  0  0  0  0  0  0  0  0  0  0  0
  142.2000  151.1449  189.0700 C   0  0  1  0  0  0  0  0  0  0  0  0
  143.1267  151.6616  187.9751 C   0  0  0  0  0  0  0  0  0  0  0  0
  141.4615  149.9194  188.6320 C   0  0  0  0  0  0  0  0  0  0  0  0
  143.0636  148.1037  190.7035 H   0  0  0  0  0  0  0  0  0  0  0  0
  140.8771  147.9945  189.4113 H   0  0  0  0  0  0  0  0  0  0  0  0
  141.1122  148.5869  191.7513 H   0  0  0  0  0  0  0  0  0  0  0  0
  139.8201  151.0968  190.7684 H   0  0  0  0  0  0  0  0  0  0  0  0
  140.2056  152.5138  193.4718 H   0  0  0  0  0  0  0  0  0  0  0  0
  139.7625  152.1733  191.8008 H   0  0  0  0  0  0  0  0  0  0  0  0
  138.5091  152.8754  192.8329 H   0  0  0  0  0  0  0  0  0  0  0  0
  137.4413  147.4124  194.1086 H   0  0  0  0  0  0  0  0  0  0  0  0
  138.6302  147.7325  191.9832 H   0  0  0  0  0  0  0  0  0  0  0  0
  137.6746  149.2767  196.8800 H   0  0  0  0  0  0  0  0  0  0  0  0
  135.8655  147.7500  196.4536 H   0  0  0  0  0  0  0  0  0  0  0  0
  135.1846  148.8473  195.2190 H   0  0  0  0  0  0  0  0  0  0  0  0
  133.9055  148.9678  197.4135 H   0  0  0  0  0  0  0  0  0  0  0  0
  133.3309  151.7007  198.2776 H   0  0  0  0  0  0  0  0  0  0  0  0
  133.7865  150.3105  199.3775 H   0  0  0  0  0  0  0  0  0  0  0  0
  133.9272  152.7260  200.1789 H   0  0  0  0  0  0  0  0  0  0  0  0
  134.5198  151.3810  201.5074 H   0  0  0  0  0  0  0  0  0  0  0  0
  135.3293  154.1610  199.1561 H   0  0  0  0  0  0  0  0  0  0  0  0
  136.6873  153.2228  199.8007 H   0  0  0  0  0  0  0  0  0  0  0  0
  136.8933  153.4997  197.3928 H   0  0  0  0  0  0  0  0  0  0  0  0
  135.1743  153.0368  197.1611 H   0  0  0  0  0  0  0  0  0  0  0  0
  137.4687  151.2830  199.4627 H   0  0  0  0  0  0  0  0  0  0  0  0
  137.3035  149.7121  198.6885 H   0  0  0  0  0  0  0  0  0  0  0  0
  138.4890  150.8824  198.0594 H   0  0  0  0  0  0  0  0  0  0  0  0
  135.7592  151.2701  195.5287 H   0  0  0  0  0  0  0  0  0  0  0  0
  138.7352  151.7645  196.1558 H   0  0  0  0  0  0  0  0  0  0  0  0
  137.6232  152.6718  195.0829 H   0  0  0  0  0  0  0  0  0  0  0  0
  139.0109  148.3418  189.8096 H   0  0  0  0  0  0  0  0  0  0  0  0
  137.8604  149.7618  189.9317 H   0  0  0  0  0  0  0  0  0  0  0  0
  139.3142  149.8690  188.9439 H   0  0  0  0  0  0  0  0  0  0  0  0
  142.8275  149.8578  192.0370 H   0  0  0  0  0  0  0  0  0  0  0  0
  143.3040  151.8986  190.6925 H   0  0  0  0  0  0  0  0  0  0  0  0
  143.8907  150.3239  190.1805 H   0  0  0  0  0  0  0  0  0  0  0  0
  141.4443  151.9771  189.1917 H   0  0  0  0  0  0  0  0  0  0  0  0
  143.0536  152.7562  187.8434 H   0  0  0  0  0  0  0  0  0  0  0  0
  144.1620  151.4639  188.3288 H   0  0  0  0  0  0  0  0  0  0  0  0
  142.9727  151.1836  187.0100 H   0  0  0  0  0  0  0  0  0  0  0  0
  141.8535  149.5289  187.6510 H   0  0  0  0  0  0  0  0  0  0  0  0
  140.3914  150.2191  188.4251 H   0  0  0  0  0  0  0  0  0  0  0  0
  1  2  1  0
  2  3  1  0
  3  4  1  0
  4  5  1  0
  5  6  2  0
  6  7  1  0
  6  8  1  0
  8  9  2  0
  9 10  1  0
 10 11  2  0
  9 12  1  0
 12 13  1  0
 13 14  1  0
 14 15  2  0
 15 16  1  0
 16 17  1  0
 17 18  1  0
 17 19  1  0
 19 20  1  0
 15 21  1  0
 21 22  1  1
 21 23  1  0
 23 24  1  0
  4 25  1  0
  3 26  1  0
 26 27  1  0
 27 28  1  0
 28 29  1  0
 28 30  1  0
 30  2  1  0
 11  5  1  0
 24  8  1  0
 23 12  1  0
 21 20  1  0
  1 31  1  0
  2 32  1  6
  3 33  1  1
  4 34  1  6
  7 35  1  0
  7 36  1  0
  7 37  1  0
 10 38  1  0
 11 39  1  0
 12 40  1  1
 13 41  1  0
 13 42  1  0
 14 43  1  0
 16 44  1  0
 16 45  1  0
 17 46  1  1
 18 47  1  0
 19 48  1  0
 19 49  1  0
 20 50  1  0
 20 51  1  0
 22 52  1  0
 22 53  1  0
 22 54  1  0
 23 55  1  6
 24 56  1  0
 24 57  1  0
 25 58  1  0
 25 59  1  0
 25 60  1  0
 26 61  1  0
 27 62  1  0
 27 63  1  0
 28 64  1  1
 29 65  1  0
 29 66  1  0
 29 67  1  0
 30 68  1  0
 30 69  1  0
M  END
>  <docking_score>  (1) 
-4.7149999999999999

$$$$

     RDKit          3D

 69 73  0  0  0  0  0  0  0  0999 V2000
  135.6566  150.9661  202.1418 O   0  0  0  0  0  0  0  0  0  0  0  0
  135.0200  151.6772  201.1173 C   0  0  1  0  0  0  0  0  0  0  0  0
  135.6710  151.3860  199.8051 C   0  0  2  0  0  0  0  0  0  0  0  0
  135.0452  152.1465  198.6447 C   0  0  2  0  0  0  0  0  0  0  0  0
  135.3810  151.5584  197.3365 C   0  0  0  0  0  0  0  0  0  0  0  0
  136.5371  151.9427  196.6921 C   0  0  0  0  0  0  0  0  0  0  0  0
  137.4153  152.9595  197.3238 C   0  0  0  0  0  0  0  0  0  0  0  0
  136.9212  151.4256  195.4762 C   0  0  0  0  0  0  0  0  0  0  0  0
  136.1414  150.4886  194.8576 C   0  0  0  0  0  0  0  0  0  0  0  0
  134.9802  150.0806  195.4704 C   0  0  0  0  0  0  0  0  0  0  0  0
  134.6068  150.6130  196.6989 C   0  0  0  0  0  0  0  0  0  0  0  0
  136.7602  150.0919  193.5684 C   0  0  2  0  0  0  0  0  0  0  0  0
  136.6965  148.6543  193.2371 C   0  0  0  0  0  0  0  0  0  0  0  0
  137.8438  148.2529  192.3809 C   0  0  0  0  0  0  0  0  0  0  0  0
  138.8209  149.0613  192.0316 C   0  0  0  0  0  0  0  0  0  0  0  0
  139.9197  148.5852  191.1834 C   0  0  0  0  0  0  0  0  0  0  0  0
  140.6590  149.6538  190.4501 C   0  0  1  0  0  0  0  0  0  0  0  0
  140.0387  149.9371  189.2070 O   0  0  0  0  0  0  0  0  0  0  0  0
  140.9914  150.8706  191.2347 C   0  0  0  0  0  0  0  0  0  0  0  0
  140.3028  150.8733  192.5954 C   0  0  0  0  0  0  0  0  0  0  0  0
  138.8644  150.5003  192.4864 C   0  0  1  0  0  0  0  0  0  0  0  0
  138.0803  151.3027  191.4917 C   0  0  0  0  0  0  0  0  0  0  0  0
  138.2242  150.4431  193.8445 C   0  0  1  0  0  0  0  0  0  0  0  0
  138.1270  151.7027  194.5998 C   0  0  0  0  0  0  0  0  0  0  0  0
  135.5263  153.6051  198.6769 C   0  0  0  0  0  0  0  0  0  0  0  0
  135.6748  149.9683  199.6005 N   0  0  0  0  0  0  0  0  0  0  0  0
  134.7074  149.2603  200.3834 C   0  0  0  0  0  0  0  0  0  0  0  0
  133.3872  149.9373  200.5208 C   0  0  1  0  0  0  0  0  0  0  0  0
  132.4195  149.1204  201.3698 C   0  0  0  0  0  0  0  0  0  0  0  0
  133.5639  151.3198  201.0654 C   0  0  0  0  0  0  0  0  0  0  0  0
  135.9125  150.0526  201.8483 H   0  0  0  0  0  0  0  0  0  0  0  0
  135.1396  152.7494  201.4225 H   0  0  0  0  0  0  0  0  0  0  0  0
  136.7326  151.7594  199.8849 H   0  0  0  0  0  0  0  0  0  0  0  0
  133.9683  152.2055  198.8330 H   0  0  0  0  0  0  0  0  0  0  0  0
  136.9274  153.9224  197.5268 H   0  0  0  0  0  0  0  0  0  0  0  0
  137.7673  152.5850  198.3081 H   0  0  0  0  0  0  0  0  0  0  0  0
  138.3183  153.0384  196.6894 H   0  0  0  0  0  0  0  0  0  0  0  0
  134.3206  149.3306  195.0144 H   0  0  0  0  0  0  0  0  0  0  0  0
  133.6877  150.2830  197.1883 H   0  0  0  0  0  0  0  0  0  0  0  0
  136.3535  150.6665  192.7136 H   0  0  0  0  0  0  0  0  0  0  0  0
  135.7423  148.3405  192.7573 H   0  0  0  0  0  0  0  0  0  0  0  0
  136.7842  148.0578  194.1807 H   0  0  0  0  0  0  0  0  0  0  0  0
  137.8562  147.2223  192.0315 H   0  0  0  0  0  0  0  0  0  0  0  0
  140.6652  147.9844  191.7589 H   0  0  0  0  0  0  0  0  0  0  0  0
  139.4423  147.9237  190.3985 H   0  0  0  0  0  0  0  0  0  0  0  0
  141.6432  149.1823  190.1370 H   0  0  0  0  0  0  0  0  0  0  0  0
  140.6984  149.6503  188.5199 H   0  0  0  0  0  0  0  0  0  0  0  0
  142.0928  150.9342  191.4785 H   0  0  0  0  0  0  0  0  0  0  0  0
  140.7824  151.8223  190.6823 H   0  0  0  0  0  0  0  0  0  0  0  0
  140.4978  151.8429  193.0980 H   0  0  0  0  0  0  0  0  0  0  0  0
  140.8148  150.0779  193.1817 H   0  0  0  0  0  0  0  0  0  0  0  0
  137.4310  152.0826  191.9453 H   0  0  0  0  0  0  0  0  0  0  0  0
  138.7253  151.8755  190.7721 H   0  0  0  0  0  0  0  0  0  0  0  0
  137.4057  150.6822  190.8458 H   0  0  0  0  0  0  0  0  0  0  0  0
  138.7096  149.6502  194.4119 H   0  0  0  0  0  0  0  0  0  0  0  0
  137.9324  152.6005  193.9805 H   0  0  0  0  0  0  0  0  0  0  0  0
  139.0289  151.8691  195.1945 H   0  0  0  0  0  0  0  0  0  0  0  0
  135.3068  154.1521  197.7625 H   0  0  0  0  0  0  0  0  0  0  0  0
  135.1391  154.1153  199.5862 H   0  0  0  0  0  0  0  0  0  0  0  0
  136.6225  153.5675  198.8117 H   0  0  0  0  0  0  0  0  0  0  0  0
  136.6175  149.6101  199.9628 H   0  0  0  0  0  0  0  0  0  0  0  0
  134.5011  148.3091  199.7948 H   0  0  0  0  0  0  0  0  0  0  0  0
  135.0974  148.8645  201.3512 H   0  0  0  0  0  0  0  0  0  0  0  0
  132.8575  150.0245  199.5257 H   0  0  0  0  0  0  0  0  0  0  0  0
  132.7800  148.0910  201.5464 H   0  0  0  0  0  0  0  0  0  0  0  0
  132.3938  149.6116  202.3667 H   0  0  0  0  0  0  0  0  0  0  0  0
  131.4127  149.0713  200.9605 H   0  0  0  0  0  0  0  0  0  0  0  0
  133.0804  151.4308  202.0766 H   0  0  0  0  0  0  0  0  0  0  0  0
  133.0016  152.0298  200.3889 H   0  0  0  0  0  0  0  0  0  0  0  0
  1  2  1  0
  2  3  1  0
  3  4  1  0
  4  5  1  0
  5  6  2  0
  6  7  1  0
  6  8  1  0
  8  9  2  0
  9 10  1  0
 10 11  2  0
  9 12  1  0
 12 13  1  0
 13 14  1  0
 14 15  2  0
 15 16  1  0
 16 17  1  0
 17 18  1  0
 17 19  1  0
 19 20  1  0
 15 21  1  0
 21 22  1  6
 21 23  1  0
 23 24  1  0
  4 25  1  0
  3 26  1  0
 26 27  1  0
 27 28  1  0
 28 29  1  0
 28 30  1  0
 30  2  1  0
 11  5  1  0
 24  8  1  0
 23 12  1  0
 21 20  1  0
  1 31  1  0
  2 32  1  1
  3 33  1  1
  4 34  1  1
  7 35  1  0
  7 36  1  0
  7 37  1  0
 10 38  1  0
 11 39  1  0
 12 40  1  6
 13 41  1  0
 13 42  1  0
 14 43  1  0
 16 44  1  0
 16 45  1  0
 17 46  1  6
 18 47  1  0
 19 48  1  0
 19 49  1  0
 20 50  1  0
 20 51  1  0
 22 52  1  0
 22 53  1  0
 22 54  1  0
 23 55  1  1
 24 56  1  0
 24 57  1  0
 25 58  1  0
 25 59  1  0
 25 60  1  0
 26 61  1  0
 27 62  1  0
 27 63  1  0
 28 64  1  6
 29 65  1  0
 29 66  1  0
 29 67  1  0
 30 68  1  0
 30 69  1  0
M  END
>  <docking_score>  (2) 
-4.5309999999999997

$$$$

     RDKit          3D

 69 73  0  0  0  0  0  0  0  0999 V2000
  141.9093  149.7399  188.2464 O   0  0  0  0  0  0  0  0  0  0  0  0
  140.7814  150.2129  188.9282 C   0  0  1  0  0  0  0  0  0  0  0  0
  140.5129  149.3680  190.1302 C   0  0  2  0  0  0  0  0  0  0  0  0
  139.2822  149.8096  190.9091 C   0  0  2  0  0  0  0  0  0  0  0  0
  139.2420  149.2465  192.2697 C   0  0  0  0  0  0  0  0  0  0  0  0
  139.4282  150.0736  193.3564 C   0  0  0  0  0  0  0  0  0  0  0  0
  139.6846  151.5185  193.1319 C   0  0  0  0  0  0  0  0  0  0  0  0
  139.3896  149.6202  194.6549 C   0  0  0  0  0  0  0  0  0  0  0  0
  139.1586  148.2967  194.9077 C   0  0  0  0  0  0  0  0  0  0  0  0
  138.9684  147.4410  193.8485 C   0  0  0  0  0  0  0  0  0  0  0  0
  139.0102  147.9155  192.5427 C   0  0  0  0  0  0  0  0  0  0  0  0
  139.1681  148.0559  196.3720 C   0  0  2  0  0  0  0  0  0  0  0  0
  138.1433  147.1214  196.8792 C   0  0  0  0  0  0  0  0  0  0  0  0
  137.7736  147.4456  198.2822 C   0  0  0  0  0  0  0  0  0  0  0  0
  138.2469  148.4753  198.9500 C   0  0  0  0  0  0  0  0  0  0  0  0
  137.8290  148.7264  200.3341 C   0  0  0  0  0  0  0  0  0  0  0  0
  138.7687  149.5647  201.1344 C   0  0  1  0  0  0  0  0  0  0  0  0
  139.7621  148.7632  201.7518 O   0  0  0  0  0  0  0  0  0  0  0  0
  139.3187  150.7616  200.4478 C   0  0  0  0  0  0  0  0  0  0  0  0
  138.9767  150.7697  198.9616 C   0  0  0  0  0  0  0  0  0  0  0  0
  139.2265  149.4431  198.3310 C   0  0  1  0  0  0  0  0  0  0  0  0
  140.6006  148.8877  198.5578 C   0  0  0  0  0  0  0  0  0  0  0  0
  138.8189  149.4551  196.8849 C   0  0  1  0  0  0  0  0  0  0  0  0
  139.5698  150.3385  195.9780 C   0  0  0  0  0  0  0  0  0  0  0  0
  138.0194  149.3754  190.1495 C   0  0  0  0  0  0  0  0  0  0  0  0
  141.6956  149.3312  190.9374 N   0  0  0  0  0  0  0  0  0  0  0  0
  142.6082  150.4062  190.6898 C   0  0  0  0  0  0  0  0  0  0  0  0
  141.9730  151.7328  190.4512 C   0  0  1  0  0  0  0  0  0  0  0  0
  143.0123  152.8181  190.1932 C   0  0  0  0  0  0  0  0  0  0  0  0
  140.9824  151.6434  189.3332 C   0  0  0  0  0  0  0  0  0  0  0  0
  142.3288  148.9748  188.7204 H   0  0  0  0  0  0  0  0  0  0  0  0
  139.9609  150.1428  188.1674 H   0  0  0  0  0  0  0  0  0  0  0  0
  140.2835  148.3317  189.7479 H   0  0  0  0  0  0  0  0  0  0  0  0
  139.2554  150.9039  190.8889 H   0  0  0  0  0  0  0  0  0  0  0  0
  139.4044  151.8831  192.1344 H   0  0  0  0  0  0  0  0  0  0  0  0
  139.0876  152.1171  193.8517 H   0  0  0  0  0  0  0  0  0  0  0  0
  140.7443  151.6983  193.3944 H   0  0  0  0  0  0  0  0  0  0  0  0
  138.7791  146.3701  193.9995 H   0  0  0  0  0  0  0  0  0  0  0  0
  138.8519  147.2362  191.7021 H   0  0  0  0  0  0  0  0  0  0  0  0
  140.1587  147.7200  196.7354 H   0  0  0  0  0  0  0  0  0  0  0  0
  138.4305  146.0485  196.8050 H   0  0  0  0  0  0  0  0  0  0  0  0
  137.2096  147.2390  196.2724 H   0  0  0  0  0  0  0  0  0  0  0  0
  137.0667  146.7762  198.7688 H   0  0  0  0  0  0  0  0  0  0  0  0
  136.8171  149.1965  200.3891 H   0  0  0  0  0  0  0  0  0  0  0  0
  137.7907  147.7125  200.8361 H   0  0  0  0  0  0  0  0  0  0  0  0
  138.1637  149.9390  202.0192 H   0  0  0  0  0  0  0  0  0  0  0  0
  140.2206  149.3709  202.3921 H   0  0  0  0  0  0  0  0  0  0  0  0
  138.8742  151.7226  200.8422 H   0  0  0  0  0  0  0  0  0  0  0  0
  140.4205  150.8912  200.6022 H   0  0  0  0  0  0  0  0  0  0  0  0
  139.4930  151.6231  198.4758 H   0  0  0  0  0  0  0  0  0  0  0  0
  137.8819  150.9648  198.9164 H   0  0  0  0  0  0  0  0  0  0  0  0
  141.4036  149.4148  197.9984 H   0  0  0  0  0  0  0  0  0  0  0  0
  140.9355  148.9476  199.6284 H   0  0  0  0  0  0  0  0  0  0  0  0
  140.6984  147.8048  198.2835 H   0  0  0  0  0  0  0  0  0  0  0  0
  137.7438  149.6241  196.8400 H   0  0  0  0  0  0  0  0  0  0  0  0
  140.6507  150.4247  196.2049 H   0  0  0  0  0  0  0  0  0  0  0  0
  139.1294  151.3387  195.9578 H   0  0  0  0  0  0  0  0  0  0  0  0
  138.2331  148.8810  189.2043 H   0  0  0  0  0  0  0  0  0  0  0  0
  137.3638  148.7694  190.8128 H   0  0  0  0  0  0  0  0  0  0  0  0
  137.4479  150.2987  189.9440 H   0  0  0  0  0  0  0  0  0  0  0  0
  142.2380  148.4547  190.6444 H   0  0  0  0  0  0  0  0  0  0  0  0
  143.1908  150.5186  191.6603 H   0  0  0  0  0  0  0  0  0  0  0  0
  143.4120  150.1687  189.9530 H   0  0  0  0  0  0  0  0  0  0  0  0
  141.4248  152.1038  191.3678 H   0  0  0  0  0  0  0  0  0  0  0  0
  142.5676  153.7329  189.7616 H   0  0  0  0  0  0  0  0  0  0  0  0
  143.4071  153.1101  191.1906 H   0  0  0  0  0  0  0  0  0  0  0  0
  143.8327  152.4955  189.5556 H   0  0  0  0  0  0  0  0  0  0  0  0
  141.2923  152.2763  188.4545 H   0  0  0  0  0  0  0  0  0  0  0  0
  140.0126  152.0962  189.6967 H   0  0  0  0  0  0  0  0  0  0  0  0
  1  2  1  0
  2  3  1  0
  3  4  1  0
  4  5  1  0
  5  6  2  0
  6  7  1  0
  6  8  1  0
  8  9  2  0
  9 10  1  0
 10 11  2  0
  9 12  1  0
 12 13  1  0
 13 14  1  0
 14 15  2  0
 15 16  1  0
 16 17  1  0
 17 18  1  0
 17 19  1  0
 19 20  1  0
 15 21  1  0
 21 22  1  6
 21 23  1  0
 23 24  1  0
  4 25  1  0
  3 26  1  0
 26 27  1  0
 27 28  1  0
 28 29  1  0
 28 30  1  0
 30  2  1  0
 11  5  1  0
 24  8  1  0
 23 12  1  0
 21 20  1  0
  1 31  1  0
  2 32  1  6
  3 33  1  6
  4 34  1  1
  7 35  1  0
  7 36  1  0
  7 37  1  0
 10 38  1  0
 11 39  1  0
 12 40  1  1
 13 41  1  0
 13 42  1  0
 14 43  1  0
 16 44  1  0
 16 45  1  0
 17 46  1  1
 18 47  1  0
 19 48  1  0
 19 49  1  0
 20 50  1  0
 20 51  1  0
 22 52  1  0
 22 53  1  0
 22 54  1  0
 23 55  1  1
 24 56  1  0
 24 57  1  0
 25 58  1  0
 25 59  1  0
 25 60  1  0
 26 61  1  0
 27 62  1  0
 27 63  1  0
 28 64  1  1
 29 65  1  0
 29 66  1  0
 29 67  1  0
 30 68  1  0
 30 69  1  0
M  END
>  <docking_score>  (3) 
-4.1520000000000001

$$$$
