
     RDKit          3D

 53 56  0  0  0  0  0  0  0  0999 V2000
  138.0178  151.1869  193.2706 O   0  0  0  0  0  0  0  0  0  0  0  0
  137.1767  150.7301  194.0475 C   0  0  0  0  0  0  0  0  0  0  0  0
  136.9132  151.4339  195.2272 C   0  0  0  0  0  0  0  0  0  0  0  0
  137.6070  152.5611  195.4364 O   0  0  0  0  0  0  0  0  0  0  0  0
  138.6396  152.7402  196.3860 C   0  0  1  0  0  0  0  0  0  0  0  0
  139.7825  151.7556  196.1218 C   0  0  1  0  0  0  0  0  0  0  0  0
  141.0984  152.4797  196.3021 C   0  0  1  0  0  0  0  0  0  0  0  0
  141.2552  153.6316  195.3652 C   0  0  2  0  0  0  0  0  0  0  0  0
  139.8871  154.2455  195.1510 C   0  0  2  0  0  0  0  0  0  0  0  0
  140.0630  155.7252  194.9834 C   0  0  0  0  0  0  0  0  0  0  0  0
  139.1396  154.0120  196.2962 O   0  0  0  0  0  0  0  0  0  0  0  0
  141.8479  153.2390  194.1657 O   0  0  0  0  0  0  0  0  0  0  0  0
  141.1633  152.8716  197.6555 O   0  0  0  0  0  0  0  0  0  0  0  0
  139.7762  150.7094  197.0390 O   0  0  0  0  0  0  0  0  0  0  0  0
  135.9948  150.9560  196.0904 C   0  0  0  0  0  0  0  0  0  0  0  0
  135.6155  151.5603  197.3249 C   0  0  0  0  0  0  0  0  0  0  0  0
  135.1855  150.7059  198.3696 C   0  0  0  0  0  0  0  0  0  0  0  0
  134.7480  151.1468  199.5792 C   0  0  0  0  0  0  0  0  0  0  0  0
  134.3347  150.2837  200.5786 O   0  0  0  0  0  0  0  0  0  0  0  0
  134.7160  152.5032  199.8159 C   0  0  0  0  0  0  0  0  0  0  0  0
  134.2779  152.9921  201.0348 O   0  0  0  0  0  0  0  0  0  0  0  0
  135.1272  153.3504  198.8179 C   0  0  0  0  0  0  0  0  0  0  0  0
  135.0979  154.7188  199.0487 O   0  0  0  0  0  0  0  0  0  0  0  0
  135.5734  152.9036  197.5821 C   0  0  0  0  0  0  0  0  0  0  0  0
  135.3708  149.7963  195.7639 O   0  0  0  0  0  0  0  0  0  0  0  0
  135.6014  149.1335  194.6837 C   0  0  0  0  0  0  0  0  0  0  0  0
  134.9195  147.9558  194.4249 C   0  0  0  0  0  0  0  0  0  0  0  0
  135.1936  147.2760  193.2593 C   0  0  0  0  0  0  0  0  0  0  0  0
  134.5024  146.0942  193.0101 O   0  0  0  0  0  0  0  0  0  0  0  0
  136.1157  147.7065  192.3294 C   0  0  0  0  0  0  0  0  0  0  0  0
  136.7935  148.8698  192.5787 C   0  0  0  0  0  0  0  0  0  0  0  0
  137.7456  149.4119  191.7261 O   0  0  0  0  0  0  0  0  0  0  0  0
  136.5245  149.5570  193.7449 C   0  0  0  0  0  0  0  0  0  0  0  0
  138.3336  152.5428  197.4205 H   0  0  0  0  0  0  0  0  0  0  0  0
  139.6886  151.3000  195.1178 H   0  0  0  0  0  0  0  0  0  0  0  0
  141.8970  151.7050  196.1545 H   0  0  0  0  0  0  0  0  0  0  0  0
  141.8782  154.3998  195.8801 H   0  0  0  0  0  0  0  0  0  0  0  0
  139.4023  153.8506  194.2355 H   0  0  0  0  0  0  0  0  0  0  0  0
  141.0867  156.0546  195.2910 H   0  0  0  0  0  0  0  0  0  0  0  0
  139.9296  156.0720  193.9432 H   0  0  0  0  0  0  0  0  0  0  0  0
  139.3618  156.3139  195.6436 H   0  0  0  0  0  0  0  0  0  0  0  0
  141.1090  153.0616  193.5132 H   0  0  0  0  0  0  0  0  0  0  0  0
  140.8107  153.7951  197.7442 H   0  0  0  0  0  0  0  0  0  0  0  0
  139.5229  149.8535  196.6486 H   0  0  0  0  0  0  0  0  0  0  0  0
  135.1912  149.6178  198.2339 H   0  0  0  0  0  0  0  0  0  0  0  0
  134.3886  150.6074  201.5341 H   0  0  0  0  0  0  0  0  0  0  0  0
  133.7949  153.8674  201.0999 H   0  0  0  0  0  0  0  0  0  0  0  0
  135.8290  155.3319  198.7232 H   0  0  0  0  0  0  0  0  0  0  0  0
  135.8568  153.5740  196.8005 H   0  0  0  0  0  0  0  0  0  0  0  0
  134.1745  147.5760  195.1408 H   0  0  0  0  0  0  0  0  0  0  0  0
  134.3210  145.7656  192.0809 H   0  0  0  0  0  0  0  0  0  0  0  0
  136.3228  147.1544  191.4064 H   0  0  0  0  0  0  0  0  0  0  0  0
  137.5638  149.3356  190.7177 H   0  0  0  0  0  0  0  0  0  0  0  0
  1  2  2  0
  2  3  1  0
  3  4  1  0
  4  5  1  0
  5  6  1  0
  6  7  1  0
  7  8  1  0
  8  9  1  0
  9 10  1  0
  9 11  1  0
  8 12  1  0
  7 13  1  0
  6 14  1  0
  3 15  2  0
 15 16  1  0
 16 17  2  0
 17 18  1  0
 18 19  1  0
 18 20  2  0
 20 21  1  0
 20 22  1  0
 22 23  1  0
 22 24  2  0
 15 25  1  0
 25 26  1  0
 26 27  2  0
 27 28  1  0
 28 29  1  0
 28 30  2  0
 30 31  1  0
 31 32  1  0
 31 33  2  0
 33  2  1  0
 11  5  1  0
 24 16  1  0
 33 26  1  0
  5 34  1  1
  6 35  1  6
  7 36  1  6
  8 37  1  1
  9 38  1  6
 10 39  1  0
 10 40  1  0
 10 41  1  0
 12 42  1  0
 13 43  1  0
 14 44  1  0
 17 45  1  0
 19 46  1  0
 21 47  1  0
 23 48  1  0
 24 49  1  0
 27 50  1  0
 29 51  1  0
 30 52  1  0
 32 53  1  0
M  END
>  <docking_score>  (1) 
-5.5199999999999996

$$$$

     RDKit          3D

 53 56  0  0  0  0  0  0  0  0999 V2000
  134.5027  148.9661  196.9392 O   0  0  0  0  0  0  0  0  0  0  0  0
  135.2119  149.8504  196.4547 C   0  0  0  0  0  0  0  0  0  0  0  0
  135.8064  149.6155  195.2107 C   0  0  0  0  0  0  0  0  0  0  0  0
  135.5688  148.4305  194.6318 O   0  0  0  0  0  0  0  0  0  0  0  0
  136.2871  147.2335  194.8577 C   0  0  1  0  0  0  0  0  0  0  0  0
  135.3815  146.1840  195.5089 C   0  0  1  0  0  0  0  0  0  0  0  0
  135.6561  144.8413  194.8682 C   0  0  1  0  0  0  0  0  0  0  0  0
  135.3857  144.8376  193.3998 C   0  0  2  0  0  0  0  0  0  0  0  0
  135.7413  146.2070  192.8588 C   0  0  2  0  0  0  0  0  0  0  0  0
  136.2854  146.0318  191.4725 C   0  0  0  0  0  0  0  0  0  0  0  0
  136.7400  146.7302  193.6672 O   0  0  0  0  0  0  0  0  0  0  0  0
  134.0637  144.4911  193.1235 O   0  0  0  0  0  0  0  0  0  0  0  0
  136.9939  144.5132  195.1719 O   0  0  0  0  0  0  0  0  0  0  0  0
  135.6599  146.0412  196.8646 O   0  0  0  0  0  0  0  0  0  0  0  0
  136.5830  150.5693  194.6591 C   0  0  0  0  0  0  0  0  0  0  0  0
  137.2492  150.4792  193.4017 C   0  0  0  0  0  0  0  0  0  0  0  0
  136.5356  149.9075  192.3198 C   0  0  0  0  0  0  0  0  0  0  0  0
  137.0623  149.7131  191.0814 C   0  0  0  0  0  0  0  0  0  0  0  0
  136.3364  149.1512  190.0460 O   0  0  0  0  0  0  0  0  0  0  0  0
  138.3669  150.0900  190.8516 C   0  0  0  0  0  0  0  0  0  0  0  0
  138.9396  149.9095  189.6042 O   0  0  0  0  0  0  0  0  0  0  0  0
  139.0782  150.6454  191.8854 C   0  0  0  0  0  0  0  0  0  0  0  0
  140.3936  151.0279  191.6618 O   0  0  0  0  0  0  0  0  0  0  0  0
  138.5437  150.8444  193.1505 C   0  0  0  0  0  0  0  0  0  0  0  0
  136.7519  151.7211  195.3558 O   0  0  0  0  0  0  0  0  0  0  0  0
  136.2143  151.9548  196.5029 C   0  0  0  0  0  0  0  0  0  0  0  0
  136.4374  153.1594  197.1492 C   0  0  0  0  0  0  0  0  0  0  0  0
  135.8451  153.3719  198.3739 C   0  0  0  0  0  0  0  0  0  0  0  0
  136.0765  154.5858  199.0137 O   0  0  0  0  0  0  0  0  0  0  0  0
  135.0364  152.4449  198.9960 C   0  0  0  0  0  0  0  0  0  0  0  0
  134.8115  151.2519  198.3628 C   0  0  0  0  0  0  0  0  0  0  0  0
  134.0191  150.2357  198.8795 O   0  0  0  0  0  0  0  0  0  0  0  0
  135.4018  151.0312  197.1350 C   0  0  0  0  0  0  0  0  0  0  0  0
  137.1309  147.3432  195.5497 H   0  0  0  0  0  0  0  0  0  0  0  0
  134.3171  146.4761  195.4309 H   0  0  0  0  0  0  0  0  0  0  0  0
  135.0129  144.1030  195.4167 H   0  0  0  0  0  0  0  0  0  0  0  0
  136.0900  144.1111  192.9314 H   0  0  0  0  0  0  0  0  0  0  0  0
  134.8508  146.8648  192.7984 H   0  0  0  0  0  0  0  0  0  0  0  0
  136.3028  144.9548  191.1711 H   0  0  0  0  0  0  0  0  0  0  0  0
  135.6997  146.5571  190.6972 H   0  0  0  0  0  0  0  0  0  0  0  0
  137.3594  146.3696  191.3918 H   0  0  0  0  0  0  0  0  0  0  0  0
  133.9056  143.5840  193.5175 H   0  0  0  0  0  0  0  0  0  0  0  0
  137.0176  143.9925  196.0165 H   0  0  0  0  0  0  0  0  0  0  0  0
  135.2255  145.2690  197.2699 H   0  0  0  0  0  0  0  0  0  0  0  0
  135.4938  149.5904  192.4485 H   0  0  0  0  0  0  0  0  0  0  0  0
  135.3891  149.4726  189.9048 H   0  0  0  0  0  0  0  0  0  0  0  0
  139.3907  149.0491  189.3595 H   0  0  0  0  0  0  0  0  0  0  0  0
  141.1118  150.3610  191.4258 H   0  0  0  0  0  0  0  0  0  0  0  0
  139.1184  151.2445  193.9570 H   0  0  0  0  0  0  0  0  0  0  0  0
  137.0768  153.9277  196.6879 H   0  0  0  0  0  0  0  0  0  0  0  0
  136.9944  154.8808  199.2868 H   0  0  0  0  0  0  0  0  0  0  0  0
  134.5720  152.6287  199.9707 H   0  0  0  0  0  0  0  0  0  0  0  0
  133.5339  149.6346  198.2021 H   0  0  0  0  0  0  0  0  0  0  0  0
  1  2  2  0
  2  3  1  0
  3  4  1  0
  4  5  1  0
  5  6  1  0
  6  7  1  0
  7  8  1  0
  8  9  1  0
  9 10  1  0
  9 11  1  0
  8 12  1  0
  7 13  1  0
  6 14  1  0
  3 15  2  0
 15 16  1  0
 16 17  2  0
 17 18  1  0
 18 19  1  0
 18 20  2  0
 20 21  1  0
 20 22  1  0
 22 23  1  0
 22 24  2  0
 15 25  1  0
 25 26  1  0
 26 27  2  0
 27 28  1  0
 28 29  1  0
 28 30  2  0
 30 31  1  0
 31 32  1  0
 31 33  2  0
 33  2  1  0
 11  5  1  0
 24 16  1  0
 33 26  1  0
  5 34  1  1
  6 35  1  1
  7 36  1  1
  8 37  1  6
  9 38  1  6
 10 39  1  0
 10 40  1  0
 10 41  1  0
 12 42  1  0
 13 43  1  0
 14 44  1  0
 17 45  1  0
 19 46  1  0
 21 47  1  0
 23 48  1  0
 24 49  1  0
 27 50  1  0
 29 51  1  0
 30 52  1  0
 32 53  1  0
M  END
>  <docking_score>  (2) 
-5.4340000000000002

$$$$

     RDKit          3D

 53 56  0  0  0  0  0  0  0  0999 V2000
  135.2666  149.6411  199.9091 O   0  0  0  0  0  0  0  0  0  0  0  0
  135.5162  150.7539  199.4410 C   0  0  0  0  0  0  0  0  0  0  0  0
  136.4472  150.8413  198.4009 C   0  0  0  0  0  0  0  0  0  0  0  0
  137.0149  149.6996  197.9887 O   0  0  0  0  0  0  0  0  0  0  0  0
  136.3424  148.5901  197.4258 C   0  0  1  0  0  0  0  0  0  0  0  0
  135.5638  149.0165  196.1779 C   0  0  1  0  0  0  0  0  0  0  0  0
  135.7364  147.9565  195.1124 C   0  0  1  0  0  0  0  0  0  0  0  0
  137.1639  147.7596  194.7214 C   0  0  2  0  0  0  0  0  0  0  0  0
  138.0169  147.9745  195.9546 C   0  0  2  0  0  0  0  0  0  0  0  0
  139.1904  147.0443  195.8756 C   0  0  0  0  0  0  0  0  0  0  0  0
  137.2500  147.6324  197.0589 O   0  0  0  0  0  0  0  0  0  0  0  0
  137.5300  148.6065  193.6760 O   0  0  0  0  0  0  0  0  0  0  0  0
  135.1463  146.7776  195.6140 O   0  0  0  0  0  0  0  0  0  0  0  0
  134.1990  149.1036  196.4336 O   0  0  0  0  0  0  0  0  0  0  0  0
  136.7336  152.0470  197.8704 C   0  0  0  0  0  0  0  0  0  0  0  0
  137.6519  152.2947  196.8082 C   0  0  0  0  0  0  0  0  0  0  0  0
  137.3173  151.8028  195.5227 C   0  0  0  0  0  0  0  0  0  0  0  0
  138.1204  151.9216  194.4319 C   0  0  0  0  0  0  0  0  0  0  0  0
  137.7623  151.4290  193.1894 O   0  0  0  0  0  0  0  0  0  0  0  0
  139.3349  152.5558  194.5715 C   0  0  0  0  0  0  0  0  0  0  0  0
  140.1809  152.6977  193.4848 O   0  0  0  0  0  0  0  0  0  0  0  0
  139.6809  153.0398  195.8081 C   0  0  0  0  0  0  0  0  0  0  0  0
  140.9032  153.6803  195.9569 O   0  0  0  0  0  0  0  0  0  0  0  0
  138.8638  152.9195  196.9233 C   0  0  0  0  0  0  0  0  0  0  0  0
  136.0962  153.1272  198.3877 O   0  0  0  0  0  0  0  0  0  0  0  0
  135.2376  153.0667  199.3461 C   0  0  0  0  0  0  0  0  0  0  0  0
  134.6304  154.2191  199.8171 C   0  0  0  0  0  0  0  0  0  0  0  0
  133.7178  154.1134  200.8428 C   0  0  0  0  0  0  0  0  0  0  0  0
  133.1143  155.2779  201.3076 O   0  0  0  0  0  0  0  0  0  0  0  0
  133.3731  152.9149  201.4302 C   0  0  0  0  0  0  0  0  0  0  0  0
  133.9694  151.7717  200.9697 C   0  0  0  0  0  0  0  0  0  0  0  0
  133.7113  150.5040  201.4734 O   0  0  0  0  0  0  0  0  0  0  0  0
  134.8854  151.8693  199.9420 C   0  0  0  0  0  0  0  0  0  0  0  0
  135.5896  148.1427  198.0860 H   0  0  0  0  0  0  0  0  0  0  0  0
  135.8878  150.0162  195.8313 H   0  0  0  0  0  0  0  0  0  0  0  0
  135.1043  148.2873  194.2460 H   0  0  0  0  0  0  0  0  0  0  0  0
  137.2858  146.6917  194.4250 H   0  0  0  0  0  0  0  0  0  0  0  0
  138.4033  149.0124  196.0067 H   0  0  0  0  0  0  0  0  0  0  0  0
  138.9830  146.0764  196.3966 H   0  0  0  0  0  0  0  0  0  0  0  0
  139.4773  146.7802  194.8422 H   0  0  0  0  0  0  0  0  0  0  0  0
  140.0996  147.4621  196.3978 H   0  0  0  0  0  0  0  0  0  0  0  0
  136.6882  149.0061  193.3086 H   0  0  0  0  0  0  0  0  0  0  0  0
  135.4197  146.0101  195.0472 H   0  0  0  0  0  0  0  0  0  0  0  0
  133.9845  149.1413  197.3832 H   0  0  0  0  0  0  0  0  0  0  0  0
  136.3623  151.2902  195.3563 H   0  0  0  0  0  0  0  0  0  0  0  0
  137.5108  150.4528  193.1231 H   0  0  0  0  0  0  0  0  0  0  0  0
  140.9185  153.3757  193.4859 H   0  0  0  0  0  0  0  0  0  0  0  0
  141.7425  153.3409  195.5134 H   0  0  0  0  0  0  0  0  0  0  0  0
  139.1596  153.2684  197.8885 H   0  0  0  0  0  0  0  0  0  0  0  0
  134.8768  155.1973  199.3763 H   0  0  0  0  0  0  0  0  0  0  0  0
  132.1377  155.3239  201.5273 H   0  0  0  0  0  0  0  0  0  0  0  0
  132.6449  152.8468  202.2456 H   0  0  0  0  0  0  0  0  0  0  0  0
  133.6293  149.7404  200.7908 H   0  0  0  0  0  0  0  0  0  0  0  0
  1  2  2  0
  2  3  1  0
  3  4  1  0
  4  5  1  0
  5  6  1  0
  6  7  1  0
  7  8  1  0
  8  9  1  0
  9 10  1  0
  9 11  1  0
  8 12  1  0
  7 13  1  0
  6 14  1  0
  3 15  2  0
 15 16  1  0
 16 17  2  0
 17 18  1  0
 18 19  1  0
 18 20  2  0
 20 21  1  0
 20 22  1  0
 22 23  1  0
 22 24  2  0
 15 25  1  0
 25 26  1  0
 26 27  2  0
 27 28  1  0
 28 29  1  0
 28 30  2  0
 30 31  1  0
 31 32  1  0
 31 33  2  0
 33  2  1  0
 11  5  1  0
 24 16  1  0
 33 26  1  0
  5 34  1  1
  6 35  1  6
  7 36  1  6
  8 37  1  6
  9 38  1  1
 10 39  1  0
 10 40  1  0
 10 41  1  0
 12 42  1  0
 13 43  1  0
 14 44  1  0
 17 45  1  0
 19 46  1  0
 21 47  1  0
 23 48  1  0
 24 49  1  0
 27 50  1  0
 29 51  1  0
 30 52  1  0
 32 53  1  0
M  END
>  <docking_score>  (3) 
-5.2809999999999997

$$$$
