
     RDKit          3D

 55 56  0  0  0  0  0  0  0  0999 V2000
  115.2943  153.9586  172.9518 C   0  0  0  0  0  0  0  0  0  0  0  0
  115.5040  152.9837  174.0511 C   0  0  0  0  0  0  0  0  0  0  0  0
  116.9414  152.5180  173.9994 C   0  0  0  0  0  0  0  0  0  0  0  0
  117.6714  152.9402  175.2289 C   0  0  0  0  0  0  0  0  0  0  0  0
  117.3783  154.3877  175.6064 C   0  0  0  0  0  0  0  0  0  0  0  0
  114.6578  151.7515  173.7242 C   0  0  0  0  0  0  0  0  0  0  0  0
  115.1598  153.4150  175.4210 C   0  0  1  0  0  0  0  0  0  0  0  0
  115.9251  154.5639  175.9817 C   0  0  2  0  0  0  0  0  0  0  0  0
  115.4056  155.9172  175.5434 C   0  0  0  0  0  0  0  0  0  0  0  0
  115.8454  154.4343  177.4960 C   0  0  1  0  0  0  0  0  0  0  0  0
  115.8829  155.7953  178.1601 C   0  0  0  0  0  0  0  0  0  0  0  0
  116.8146  155.7924  179.3595 C   0  0  0  0  0  0  0  0  0  0  0  0
  116.1370  156.4758  180.5274 C   0  0  2  0  0  0  0  0  0  0  0  0
  115.4119  157.5721  180.0409 O   0  0  0  0  0  0  0  0  0  0  0  0
  117.1016  156.9752  181.5589 C   0  0  0  0  0  0  0  0  0  0  0  0
  115.1590  155.5738  181.1932 C   0  0  0  0  0  0  0  0  0  0  0  0
  114.1245  156.0185  181.8856 C   0  0  0  0  0  0  0  0  0  0  0  0
  113.6504  153.5809  175.6317 C   0  0  0  0  0  0  0  0  0  0  0  0
  113.3787  153.8214  177.1145 C   0  0  0  0  0  0  0  0  0  0  0  0
  114.6346  153.6683  177.8976 C   0  0  0  0  0  0  0  0  0  0  0  0
  114.6980  152.8605  178.9511 C   0  0  0  0  0  0  0  0  0  0  0  0
  114.3008  154.4490  172.9604 H   0  0  0  0  0  0  0  0  0  0  0  0
  116.0058  154.8204  173.1384 H   0  0  0  0  0  0  0  0  0  0  0  0
  115.5894  153.5945  171.9427 H   0  0  0  0  0  0  0  0  0  0  0  0
  117.0383  151.4165  173.9122 H   0  0  0  0  0  0  0  0  0  0  0  0
  117.4797  152.9381  173.1250 H   0  0  0  0  0  0  0  0  0  0  0  0
  117.5295  152.2611  176.0715 H   0  0  0  0  0  0  0  0  0  0  0  0
  118.7693  152.9178  174.9870 H   0  0  0  0  0  0  0  0  0  0  0  0
  118.0558  154.6195  176.4601 H   0  0  0  0  0  0  0  0  0  0  0  0
  117.6872  155.0449  174.7759 H   0  0  0  0  0  0  0  0  0  0  0  0
  115.0812  150.8323  174.1558 H   0  0  0  0  0  0  0  0  0  0  0  0
  113.6804  151.9166  174.2238 H   0  0  0  0  0  0  0  0  0  0  0  0
  114.4840  151.7128  172.6467 H   0  0  0  0  0  0  0  0  0  0  0  0
  115.4074  152.5280  176.0852 H   0  0  0  0  0  0  0  0  0  0  0  0
  114.3134  156.0110  175.6975 H   0  0  0  0  0  0  0  0  0  0  0  0
  115.6067  156.1190  174.4883 H   0  0  0  0  0  0  0  0  0  0  0  0
  115.8626  156.6955  176.2180 H   0  0  0  0  0  0  0  0  0  0  0  0
  116.7206  153.8816  177.8576 H   0  0  0  0  0  0  0  0  0  0  0  0
  114.8675  155.9708  178.5713 H   0  0  0  0  0  0  0  0  0  0  0  0
  116.2485  156.5811  177.4859 H   0  0  0  0  0  0  0  0  0  0  0  0
  117.6860  156.4332  179.0864 H   0  0  0  0  0  0  0  0  0  0  0  0
  117.2055  154.8058  179.6110 H   0  0  0  0  0  0  0  0  0  0  0  0
  115.9649  158.1382  179.4740 H   0  0  0  0  0  0  0  0  0  0  0  0
  116.4835  157.4589  182.3713 H   0  0  0  0  0  0  0  0  0  0  0  0
  117.6310  156.1385  182.0869 H   0  0  0  0  0  0  0  0  0  0  0  0
  117.7911  157.7498  181.2046 H   0  0  0  0  0  0  0  0  0  0  0  0
  115.2971  154.5078  181.1092 H   0  0  0  0  0  0  0  0  0  0  0  0
  113.9442  157.0987  181.9978 H   0  0  0  0  0  0  0  0  0  0  0  0
  113.4259  155.3474  182.3614 H   0  0  0  0  0  0  0  0  0  0  0  0
  113.2276  154.3668  175.0042 H   0  0  0  0  0  0  0  0  0  0  0  0
  113.1659  152.6121  175.3929 H   0  0  0  0  0  0  0  0  0  0  0  0
  112.6456  153.0905  177.5158 H   0  0  0  0  0  0  0  0  0  0  0  0
  112.9086  154.8164  177.2748 H   0  0  0  0  0  0  0  0  0  0  0  0
  113.8044  152.3088  179.2302 H   0  0  0  0  0  0  0  0  0  0  0  0
  115.5674  152.7119  179.5481 H   0  0  0  0  0  0  0  0  0  0  0  0
  1  2  1  0
  2  3  1  0
  3  4  1  0
  4  5  1  0
  2  6  1  0
  2  7  1  0
  7  8  1  0
  8  9  1  1
  8 10  1  0
 10 11  1  0
 11 12  1  0
 12 13  1  0
 13 14  1  6
 13 15  1  0
 13 16  1  0
 16 17  2  3
  7 18  1  0
 18 19  1  0
 19 20  1  0
 20 21  2  3
  8  5  1  0
 20 10  1  0
  1 22  1  0
  1 23  1  0
  1 24  1  0
  3 25  1  0
  3 26  1  0
  4 27  1  0
  4 28  1  0
  5 29  1  0
  5 30  1  0
  6 31  1  0
  6 32  1  0
  6 33  1  0
  7 34  1  1
  9 35  1  0
  9 36  1  0
  9 37  1  0
 10 38  1  1
 11 39  1  0
 11 40  1  0
 12 41  1  0
 12 42  1  0
 14 43  1  0
 15 44  1  0
 15 45  1  0
 15 46  1  0
 16 47  1  0
 17 48  1  0
 17 49  1  0
 18 50  1  0
 18 51  1  0
 19 52  1  0
 19 53  1  0
 21 54  1  0
 21 55  1  0
M  END
>  <docking_score>  (1) 
-4.3739999999999997

$$$$

     RDKit          3D

 55 56  0  0  0  0  0  0  0  0999 V2000
  114.9149  153.9693  173.0155 C   0  0  0  0  0  0  0  0  0  0  0  0
  115.1776  152.9619  174.0733 C   0  0  0  0  0  0  0  0  0  0  0  0
  116.5800  152.4313  173.8802 C   0  0  0  0  0  0  0  0  0  0  0  0
  117.4394  152.7921  175.0440 C   0  0  0  0  0  0  0  0  0  0  0  0
  117.2522  154.2431  175.4725 C   0  0  0  0  0  0  0  0  0  0  0  0
  114.2465  151.7777  173.8046 C   0  0  0  0  0  0  0  0  0  0  0  0
  114.9818  153.3785  175.4766 C   0  0  1  0  0  0  0  0  0  0  0  0
  115.8498  154.4781  175.9840 C   0  0  2  0  0  0  0  0  0  0  0  0
  115.3581  155.8633  175.6197 C   0  0  0  0  0  0  0  0  0  0  0  0
  115.9035  154.3191  177.4966 C   0  0  1  0  0  0  0  0  0  0  0  0
  116.0673  155.6620  178.1782 C   0  0  0  0  0  0  0  0  0  0  0  0
  117.3793  155.7315  178.9401 C   0  0  0  0  0  0  0  0  0  0  0  0
  117.1010  155.7229  180.4276 C   0  0  2  0  0  0  0  0  0  0  0  0
  117.9883  156.6109  181.0507 O   0  0  0  0  0  0  0  0  0  0  0  0
  117.2764  154.3729  181.0525 C   0  0  0  0  0  0  0  0  0  0  0  0
  115.7263  156.2066  180.7271 C   0  0  0  0  0  0  0  0  0  0  0  0
  115.4839  157.2777  181.4628 C   0  0  0  0  0  0  0  0  0  0  0  0
  113.5079  153.6095  175.8294 C   0  0  0  0  0  0  0  0  0  0  0  0
  113.3855  153.8297  177.3350 C   0  0  0  0  0  0  0  0  0  0  0  0
  114.6991  153.6014  177.9953 C   0  0  0  0  0  0  0  0  0  0  0  0
  114.8200  152.7686  179.0240 C   0  0  0  0  0  0  0  0  0  0  0  0
  113.9755  154.5405  173.1527 H   0  0  0  0  0  0  0  0  0  0  0  0
  115.7146  154.7657  173.1162 H   0  0  0  0  0  0  0  0  0  0  0  0
  115.0493  153.5992  171.9749 H   0  0  0  0  0  0  0  0  0  0  0  0
  116.6154  151.3287  173.7650 H   0  0  0  0  0  0  0  0  0  0  0  0
  117.0553  152.8452  172.9672 H   0  0  0  0  0  0  0  0  0  0  0  0
  117.3429  152.1021  175.8840 H   0  0  0  0  0  0  0  0  0  0  0  0
  118.5081  152.7243  174.7008 H   0  0  0  0  0  0  0  0  0  0  0  0
  118.0157  154.4244  176.2635 H   0  0  0  0  0  0  0  0  0  0  0  0
  117.5148  154.9033  174.6286 H   0  0  0  0  0  0  0  0  0  0  0  0
  114.7699  150.8132  173.8851 H   0  0  0  0  0  0  0  0  0  0  0  0
  113.4911  151.7984  174.6178 H   0  0  0  0  0  0  0  0  0  0  0  0
  113.7276  151.9387  172.8573 H   0  0  0  0  0  0  0  0  0  0  0  0
  115.2463  152.4666  176.0993 H   0  0  0  0  0  0  0  0  0  0  0  0
  116.0143  156.3527  174.8745 H   0  0  0  0  0  0  0  0  0  0  0  0
  115.2962  156.5251  176.4872 H   0  0  0  0  0  0  0  0  0  0  0  0
  114.3638  155.7498  175.1019 H   0  0  0  0  0  0  0  0  0  0  0  0
  116.7805  153.7187  177.7657 H   0  0  0  0  0  0  0  0  0  0  0  0
  115.2712  155.7209  178.9487 H   0  0  0  0  0  0  0  0  0  0  0  0
  116.0793  156.4961  177.4643 H   0  0  0  0  0  0  0  0  0  0  0  0
  117.8264  156.7278  178.7125 H   0  0  0  0  0  0  0  0  0  0  0  0
  118.1047  154.9753  178.6376 H   0  0  0  0  0  0  0  0  0  0  0  0
  117.9777  157.4829  180.6181 H   0  0  0  0  0  0  0  0  0  0  0  0
  117.1151  154.5077  182.1624 H   0  0  0  0  0  0  0  0  0  0  0  0
  116.4688  153.6554  180.7493 H   0  0  0  0  0  0  0  0  0  0  0  0
  118.2794  153.9448  180.9445 H   0  0  0  0  0  0  0  0  0  0  0  0
  114.8867  155.6609  180.3271 H   0  0  0  0  0  0  0  0  0  0  0  0
  116.3103  157.8654  181.8914 H   0  0  0  0  0  0  0  0  0  0  0  0
  114.4788  157.6125  181.6687 H   0  0  0  0  0  0  0  0  0  0  0  0
  113.0676  154.4277  175.2577 H   0  0  0  0  0  0  0  0  0  0  0  0
  112.9574  152.6696  175.6195 H   0  0  0  0  0  0  0  0  0  0  0  0
  112.6580  153.1248  177.7896 H   0  0  0  0  0  0  0  0  0  0  0  0
  112.9805  154.8417  177.5557 H   0  0  0  0  0  0  0  0  0  0  0  0
  113.9303  152.2529  179.3751 H   0  0  0  0  0  0  0  0  0  0  0  0
  115.7324  152.5668  179.5351 H   0  0  0  0  0  0  0  0  0  0  0  0
  1  2  1  0
  2  3  1  0
  3  4  1  0
  4  5  1  0
  2  6  1  0
  2  7  1  0
  7  8  1  0
  8  9  1  1
  8 10  1  0
 10 11  1  0
 11 12  1  0
 12 13  1  0
 13 14  1  1
 13 15  1  0
 13 16  1  0
 16 17  2  3
  7 18  1  0
 18 19  1  0
 19 20  1  0
 20 21  2  3
  8  5  1  0
 20 10  1  0
  1 22  1  0
  1 23  1  0
  1 24  1  0
  3 25  1  0
  3 26  1  0
  4 27  1  0
  4 28  1  0
  5 29  1  0
  5 30  1  0
  6 31  1  0
  6 32  1  0
  6 33  1  0
  7 34  1  1
  9 35  1  0
  9 36  1  0
  9 37  1  0
 10 38  1  6
 11 39  1  0
 11 40  1  0
 12 41  1  0
 12 42  1  0
 14 43  1  0
 15 44  1  0
 15 45  1  0
 15 46  1  0
 16 47  1  0
 17 48  1  0
 17 49  1  0
 18 50  1  0
 18 51  1  0
 19 52  1  0
 19 53  1  0
 21 54  1  0
 21 55  1  0
M  END
>  <docking_score>  (2) 
-4.282

$$$$

     RDKit          3D

 55 56  0  0  0  0  0  0  0  0999 V2000
  136.1493  146.7816  190.8822 C   0  0  0  0  0  0  0  0  0  0  0  0
  137.4090  147.4927  191.2141 C   0  0  0  0  0  0  0  0  0  0  0  0
  137.5832  148.6264  190.2291 C   0  0  0  0  0  0  0  0  0  0  0  0
  137.5241  149.9408  190.9304 C   0  0  0  0  0  0  0  0  0  0  0  0
  136.3814  150.0076  191.9372 C   0  0  0  0  0  0  0  0  0  0  0  0
  138.5581  146.5217  190.9349 C   0  0  0  0  0  0  0  0  0  0  0  0
  137.5676  147.9920  192.5950 C   0  0  1  0  0  0  0  0  0  0  0  0
  136.5930  149.0186  193.0601 C   0  0  2  0  0  0  0  0  0  0  0  0
  135.2771  148.4410  193.5375 C   0  0  0  0  0  0  0  0  0  0  0  0
  137.2755  149.7777  194.1889 C   0  0  1  0  0  0  0  0  0  0  0  0
  136.2627  150.2712  195.2014 C   0  0  0  0  0  0  0  0  0  0  0  0
  136.3798  151.7718  195.4046 C   0  0  0  0  0  0  0  0  0  0  0  0
  136.6522  152.0644  196.8641 C   0  0  2  0  0  0  0  0  0  0  0  0
  136.9459  150.8569  197.5120 O   0  0  0  0  0  0  0  0  0  0  0  0
  135.4906  152.6993  197.5650 C   0  0  0  0  0  0  0  0  0  0  0  0
  137.8414  152.9428  197.0306 C   0  0  0  0  0  0  0  0  0  0  0  0
  138.7457  153.1183  196.0826 C   0  0  0  0  0  0  0  0  0  0  0  0
  137.7380  146.8649  193.6201 C   0  0  0  0  0  0  0  0  0  0  0  0
  138.1009  147.4732  194.9723 C   0  0  0  0  0  0  0  0  0  0  0  0
  138.3214  148.9381  194.8333 C   0  0  0  0  0  0  0  0  0  0  0  0
  139.4351  149.5141  195.2741 C   0  0  0  0  0  0  0  0  0  0  0  0
  135.3333  147.4411  190.5262 H   0  0  0  0  0  0  0  0  0  0  0  0
  136.3671  146.1347  189.9778 H   0  0  0  0  0  0  0  0  0  0  0  0
  135.8114  146.0486  191.6480 H   0  0  0  0  0  0  0  0  0  0  0  0
  138.5459  148.5809  189.6802 H   0  0  0  0  0  0  0  0  0  0  0  0
  136.7921  148.6218  189.4512 H   0  0  0  0  0  0  0  0  0  0  0  0
  138.4764  150.2391  191.3723 H   0  0  0  0  0  0  0  0  0  0  0  0
  137.2777  150.7188  190.1567 H   0  0  0  0  0  0  0  0  0  0  0  0
  136.3689  151.0578  192.3094 H   0  0  0  0  0  0  0  0  0  0  0  0
  135.4263  149.8533  191.4071 H   0  0  0  0  0  0  0  0  0  0  0  0
  139.4594  146.7693  191.5154 H   0  0  0  0  0  0  0  0  0  0  0  0
  138.2095  145.5315  191.2955 H   0  0  0  0  0  0  0  0  0  0  0  0
  138.7137  146.4527  189.8562 H   0  0  0  0  0  0  0  0  0  0  0  0
  138.5824  148.5011  192.6145 H   0  0  0  0  0  0  0  0  0  0  0  0
  135.1272  148.5951  194.6234 H   0  0  0  0  0  0  0  0  0  0  0  0
  135.1984  147.3682  193.3444 H   0  0  0  0  0  0  0  0  0  0  0  0
  134.4475  149.0222  193.0438 H   0  0  0  0  0  0  0  0  0  0  0  0
  137.7714  150.6655  193.7789 H   0  0  0  0  0  0  0  0  0  0  0  0
  136.5442  149.8156  196.1730 H   0  0  0  0  0  0  0  0  0  0  0  0
  135.2280  150.0812  194.8866 H   0  0  0  0  0  0  0  0  0  0  0  0
  135.3746  152.2018  195.1829 H   0  0  0  0  0  0  0  0  0  0  0  0
  137.0920  152.2527  194.7330 H   0  0  0  0  0  0  0  0  0  0  0  0
  137.1077  150.9957  198.4619 H   0  0  0  0  0  0  0  0  0  0  0  0
  135.4955  152.3023  198.6225 H   0  0  0  0  0  0  0  0  0  0  0  0
  135.6242  153.8060  197.6934 H   0  0  0  0  0  0  0  0  0  0  0  0
  134.5090  152.4410  197.1516 H   0  0  0  0  0  0  0  0  0  0  0  0
  137.9749  153.4617  197.9663 H   0  0  0  0  0  0  0  0  0  0  0  0
  138.6498  152.6087  195.1115 H   0  0  0  0  0  0  0  0  0  0  0  0
  139.6019  153.7602  196.2231 H   0  0  0  0  0  0  0  0  0  0  0  0
  136.8578  146.2232  193.6815 H   0  0  0  0  0  0  0  0  0  0  0  0
  138.6186  146.2618  193.3182 H   0  0  0  0  0  0  0  0  0  0  0  0
  139.0366  147.0331  195.3765 H   0  0  0  0  0  0  0  0  0  0  0  0
  137.3231  147.2411  195.7326 H   0  0  0  0  0  0  0  0  0  0  0  0
  140.1882  148.8859  195.7421 H   0  0  0  0  0  0  0  0  0  0  0  0
  139.6469  150.5555  195.2024 H   0  0  0  0  0  0  0  0  0  0  0  0
  1  2  1  0
  2  3  1  0
  3  4  1  0
  4  5  1  0
  2  6  1  0
  2  7  1  0
  7  8  1  0
  8  9  1  1
  8 10  1  0
 10 11  1  0
 11 12  1  0
 12 13  1  0
 13 14  1  1
 13 15  1  0
 13 16  1  0
 16 17  2  3
  7 18  1  0
 18 19  1  0
 19 20  1  0
 20 21  2  3
  8  5  1  0
 20 10  1  0
  1 22  1  0
  1 23  1  0
  1 24  1  0
  3 25  1  0
  3 26  1  0
  4 27  1  0
  4 28  1  0
  5 29  1  0
  5 30  1  0
  6 31  1  0
  6 32  1  0
  6 33  1  0
  7 34  1  6
  9 35  1  0
  9 36  1  0
  9 37  1  0
 10 38  1  6
 11 39  1  0
 11 40  1  0
 12 41  1  0
 12 42  1  0
 14 43  1  0
 15 44  1  0
 15 45  1  0
 15 46  1  0
 16 47  1  0
 17 48  1  0
 17 49  1  0
 18 50  1  0
 18 51  1  0
 19 52  1  0
 19 53  1  0
 21 54  1  0
 21 55  1  0
M  END
>  <docking_score>  (3) 
-4.1710000000000003

$$$$
