
     RDKit          3D

 72 75  0  0  0  0  0  0  0  0999 V2000
  135.6277  148.8898  199.1081 O   0  0  0  0  0  0  0  0  0  0  0  0
  135.9814  149.7199  198.0217 C   0  0  1  0  0  0  0  0  0  0  0  0
  135.2393  150.9999  198.0297 C   0  0  2  0  0  0  0  0  0  0  0  0
  134.1025  150.8499  197.2022 O   0  0  0  0  0  0  0  0  0  0  0  0
  135.9721  152.1985  197.5686 C   0  0  1  0  0  0  0  0  0  0  0  0
  135.7690  153.3009  198.6205 C   0  0  0  0  0  0  0  0  0  0  0  0
  134.8770  152.9265  199.5964 O   0  0  0  0  0  0  0  0  0  0  0  0
  137.3084  152.0783  197.3748 O   0  0  0  0  0  0  0  0  0  0  0  0
  137.7133  150.8689  196.7999 C   0  0  1  0  0  0  0  0  0  0  0  0
  139.0280  150.9532  196.4390 O   0  0  0  0  0  0  0  0  0  0  0  0
  139.6732  151.2605  195.2948 C   0  0  0  0  0  0  0  0  0  0  0  0
  140.3239  152.4456  195.0728 C   0  0  0  0  0  0  0  0  0  0  0  0
  140.3846  153.4548  196.0089 O   0  0  0  0  0  0  0  0  0  0  0  0
  139.7521  154.6854  195.7743 C   0  0  0  0  0  0  0  0  0  0  0  0
  140.9593  152.6501  193.8413 C   0  0  0  0  0  0  0  0  0  0  0  0
  140.9528  151.7027  192.8471 C   0  0  0  0  0  0  0  0  0  0  0  0
  141.6373  151.9566  191.5577 C   0  0  0  0  0  0  0  0  0  0  0  0
  141.5668  150.7299  190.6511 C   0  0  1  0  0  0  0  0  0  0  0  0
  140.8669  151.0261  189.3767 C   0  0  0  0  0  0  0  0  0  0  0  0
  141.8164  151.0607  188.3493 O   0  0  0  0  0  0  0  0  0  0  0  0
  143.1095  151.1367  188.9417 C   0  0  0  0  0  0  0  0  0  0  0  0
  142.9587  150.3403  190.2058 C   0  0  2  0  0  0  0  0  0  0  0  0
  143.0243  148.8533  189.9653 C   0  0  0  0  0  0  0  0  0  0  0  0
  142.4897  148.0555  191.0879 C   0  0  0  0  0  0  0  0  0  0  0  0
  141.3676  147.2742  190.9534 C   0  0  0  0  0  0  0  0  0  0  0  0
  140.8644  146.5215  192.0087 C   0  0  0  0  0  0  0  0  0  0  0  0
  139.7301  145.7345  191.8643 O   0  0  0  0  0  0  0  0  0  0  0  0
  138.6785  146.1324  191.0033 C   0  0  0  0  0  0  0  0  0  0  0  0
  141.4882  146.5363  193.2473 C   0  0  0  0  0  0  0  0  0  0  0  0
  140.9751  145.7767  194.3014 O   0  0  0  0  0  0  0  0  0  0  0  0
  140.2546  146.4701  195.3134 C   0  0  0  0  0  0  0  0  0  0  0  0
  142.6099  147.3168  193.3833 C   0  0  0  0  0  0  0  0  0  0  0  0
  143.1064  148.0643  192.3285 C   0  0  0  0  0  0  0  0  0  0  0  0
  139.6412  151.2218  189.1846 O   0  0  0  0  0  0  0  0  0  0  0  0
  140.2974  150.5167  193.0786 C   0  0  0  0  0  0  0  0  0  0  0  0
  139.6663  150.2936  194.2807 C   0  0  0  0  0  0  0  0  0  0  0  0
  137.4862  149.8572  197.9453 C   0  0  2  0  0  0  0  0  0  0  0  0
  138.0546  148.6376  197.6412 O   0  0  0  0  0  0  0  0  0  0  0  0
  134.7131  148.5420  199.0211 H   0  0  0  0  0  0  0  0  0  0  0  0
  135.6963  149.1134  197.1116 H   0  0  0  0  0  0  0  0  0  0  0  0
  134.8011  151.1303  199.0636 H   0  0  0  0  0  0  0  0  0  0  0  0
  134.3737  150.3730  196.3694 H   0  0  0  0  0  0  0  0  0  0  0  0
  135.5314  152.6420  196.6270 H   0  0  0  0  0  0  0  0  0  0  0  0
  136.7260  153.6788  198.9760 H   0  0  0  0  0  0  0  0  0  0  0  0
  135.2982  154.1459  198.0373 H   0  0  0  0  0  0  0  0  0  0  0  0
  134.9053  153.6225  200.3244 H   0  0  0  0  0  0  0  0  0  0  0  0
  136.9776  150.5919  196.0258 H   0  0  0  0  0  0  0  0  0  0  0  0
  140.3745  155.3227  195.0858 H   0  0  0  0  0  0  0  0  0  0  0  0
  138.7537  154.5712  195.2952 H   0  0  0  0  0  0  0  0  0  0  0  0
  139.6123  155.2251  196.7530 H   0  0  0  0  0  0  0  0  0  0  0  0
  141.4718  153.6178  193.7033 H   0  0  0  0  0  0  0  0  0  0  0  0
  142.7188  152.1738  191.6854 H   0  0  0  0  0  0  0  0  0  0  0  0
  141.1280  152.7778  190.9825 H   0  0  0  0  0  0  0  0  0  0  0  0
  141.1181  149.8612  191.1669 H   0  0  0  0  0  0  0  0  0  0  0  0
  143.2258  152.2094  189.2544 H   0  0  0  0  0  0  0  0  0  0  0  0
  143.9162  150.8135  188.2780 H   0  0  0  0  0  0  0  0  0  0  0  0
  143.6752  150.6558  190.9930 H   0  0  0  0  0  0  0  0  0  0  0  0
  144.1131  148.6064  189.8167 H   0  0  0  0  0  0  0  0  0  0  0  0
  142.5065  148.6061  189.0260 H   0  0  0  0  0  0  0  0  0  0  0  0
  140.8200  147.2061  190.0253 H   0  0  0  0  0  0  0  0  0  0  0  0
  138.8152  147.1608  190.6481 H   0  0  0  0  0  0  0  0  0  0  0  0
  137.7461  146.1369  191.6402 H   0  0  0  0  0  0  0  0  0  0  0  0
  138.4895  145.4186  190.2017 H   0  0  0  0  0  0  0  0  0  0  0  0
  140.3098  147.5567  195.0194 H   0  0  0  0  0  0  0  0  0  0  0  0
  140.7268  146.3318  196.3064 H   0  0  0  0  0  0  0  0  0  0  0  0
  139.1833  146.2052  195.3300 H   0  0  0  0  0  0  0  0  0  0  0  0
  143.1033  147.3334  194.3484 H   0  0  0  0  0  0  0  0  0  0  0  0
  143.9918  148.6654  192.4778 H   0  0  0  0  0  0  0  0  0  0  0  0
  140.3094  149.7838  192.2709 H   0  0  0  0  0  0  0  0  0  0  0  0
  139.1624  149.3493  194.4237 H   0  0  0  0  0  0  0  0  0  0  0  0
  137.9194  150.3329  198.8513 H   0  0  0  0  0  0  0  0  0  0  0  0
  138.0211  148.5342  196.6537 H   0  0  0  0  0  0  0  0  0  0  0  0
  1  2  1  0
  2  3  1  0
  3  4  1  0
  3  5  1  0
  5  6  1  0
  6  7  1  0
  5  8  1  0
  8  9  1  0
  9 10  1  0
 10 11  1  0
 11 12  2  0
 12 13  1  0
 13 14  1  0
 12 15  1  0
 15 16  2  0
 16 17  1  0
 17 18  1  0
 18 19  1  0
 19 20  1  0
 20 21  1  0
 21 22  1  0
 22 23  1  0
 23 24  1  0
 24 25  2  0
 25 26  1  0
 26 27  1  0
 27 28  1  0
 26 29  2  0
 29 30  1  0
 30 31  1  0
 29 32  1  0
 32 33  2  0
 19 34  2  0
 16 35  1  0
 35 36  2  0
  9 37  1  0
 37 38  1  0
 37  2  1  0
 36 11  1  0
 22 18  1  0
 33 24  1  0
  1 39  1  0
  2 40  1  6
  3 41  1  1
  4 42  1  0
  5 43  1  6
  6 44  1  0
  6 45  1  0
  7 46  1  0
  9 47  1  6
 14 48  1  0
 14 49  1  0
 14 50  1  0
 15 51  1  0
 17 52  1  0
 17 53  1  0
 18 54  1  1
 21 55  1  0
 21 56  1  0
 22 57  1  1
 23 58  1  0
 23 59  1  0
 25 60  1  0
 28 61  1  0
 28 62  1  0
 28 63  1  0
 31 64  1  0
 31 65  1  0
 31 66  1  0
 32 67  1  0
 33 68  1  0
 35 69  1  0
 36 70  1  0
 37 71  1  1
 38 72  1  0
M  END
>  <docking_score>  (1) 
-3.7360000000000002

$$$$

     RDKit          3D

 72 75  0  0  0  0  0  0  0  0999 V2000
  140.6342  155.8499  197.2520 O   0  0  0  0  0  0  0  0  0  0  0  0
  140.1485  155.1860  196.1040 C   0  0  1  0  0  0  0  0  0  0  0  0
  141.1772  155.0695  195.0470 C   0  0  2  0  0  0  0  0  0  0  0  0
  141.0166  156.1593  194.1603 O   0  0  0  0  0  0  0  0  0  0  0  0
  141.1659  153.8313  194.2390 C   0  0  1  0  0  0  0  0  0  0  0  0
  142.6011  153.2813  194.2108 C   0  0  0  0  0  0  0  0  0  0  0  0
  143.1197  153.1246  195.4736 O   0  0  0  0  0  0  0  0  0  0  0  0
  140.3634  152.8208  194.6546 O   0  0  0  0  0  0  0  0  0  0  0  0
  139.1200  153.2237  195.1532 C   0  0  1  0  0  0  0  0  0  0  0  0
  138.3183  152.1300  195.3172 O   0  0  0  0  0  0  0  0  0  0  0  0
  138.4975  150.9007  195.8432 C   0  0  0  0  0  0  0  0  0  0  0  0
  139.0222  149.8385  195.1552 C   0  0  0  0  0  0  0  0  0  0  0  0
  139.4243  149.9215  193.8400 O   0  0  0  0  0  0  0  0  0  0  0  0
  139.6284  148.7589  193.0808 C   0  0  0  0  0  0  0  0  0  0  0  0
  139.1601  148.6078  195.8099 C   0  0  0  0  0  0  0  0  0  0  0  0
  138.7871  148.4286  197.1194 C   0  0  0  0  0  0  0  0  0  0  0  0
  138.9494  147.1108  197.7771 C   0  0  0  0  0  0  0  0  0  0  0  0
  138.1215  146.0412  197.0686 C   0  0  1  0  0  0  0  0  0  0  0  0
  138.3013  144.7049  197.6881 C   0  0  0  0  0  0  0  0  0  0  0  0
  137.1317  144.3803  198.3845 O   0  0  0  0  0  0  0  0  0  0  0  0
  136.3535  145.5653  198.5230 C   0  0  0  0  0  0  0  0  0  0  0  0
  136.6478  146.3224  197.2600 C   0  0  2  0  0  0  0  0  0  0  0  0
  135.8676  145.8042  196.0785 C   0  0  0  0  0  0  0  0  0  0  0  0
  135.8553  146.7360  194.9322 C   0  0  0  0  0  0  0  0  0  0  0  0
  136.1030  146.3116  193.6492 C   0  0  0  0  0  0  0  0  0  0  0  0
  136.0899  147.1873  192.5692 C   0  0  0  0  0  0  0  0  0  0  0  0
  136.3413  146.7501  191.2758 O   0  0  0  0  0  0  0  0  0  0  0  0
  137.6517  146.3934  190.8748 C   0  0  0  0  0  0  0  0  0  0  0  0
  135.8227  148.5353  192.7561 C   0  0  0  0  0  0  0  0  0  0  0  0
  135.8119  149.4072  191.6646 O   0  0  0  0  0  0  0  0  0  0  0  0
  136.7467  150.4795  191.6785 C   0  0  0  0  0  0  0  0  0  0  0  0
  135.5749  148.9610  194.0379 C   0  0  0  0  0  0  0  0  0  0  0  0
  135.5892  148.0841  195.1097 C   0  0  0  0  0  0  0  0  0  0  0  0
  139.3011  143.9466  197.6358 O   0  0  0  0  0  0  0  0  0  0  0  0
  138.2615  149.4999  197.8018 C   0  0  0  0  0  0  0  0  0  0  0  0
  138.1167  150.7183  197.1793 C   0  0  0  0  0  0  0  0  0  0  0  0
  139.4930  153.8814  196.5006 C   0  0  2  0  0  0  0  0  0  0  0  0
  138.3638  154.1322  197.2522 O   0  0  0  0  0  0  0  0  0  0  0  0
  139.9603  155.8885  197.9657 H   0  0  0  0  0  0  0  0  0  0  0  0
  139.3008  155.8431  195.7478 H   0  0  0  0  0  0  0  0  0  0  0  0
  142.1811  155.2638  195.5290 H   0  0  0  0  0  0  0  0  0  0  0  0
  140.3570  156.7963  194.5525 H   0  0  0  0  0  0  0  0  0  0  0  0
  140.9315  154.0245  193.1503 H   0  0  0  0  0  0  0  0  0  0  0  0
  142.6701  152.4106  193.5611 H   0  0  0  0  0  0  0  0  0  0  0  0
  143.1921  154.0976  193.7007 H   0  0  0  0  0  0  0  0  0  0  0  0
  142.8476  152.2141  195.8086 H   0  0  0  0  0  0  0  0  0  0  0  0
  138.7490  154.0519  194.5256 H   0  0  0  0  0  0  0  0  0  0  0  0
  139.4328  148.9615  191.9908 H   0  0  0  0  0  0  0  0  0  0  0  0
  140.6700  148.3733  193.1566 H   0  0  0  0  0  0  0  0  0  0  0  0
  138.9285  147.9524  193.4390 H   0  0  0  0  0  0  0  0  0  0  0  0
  139.5870  147.7784  195.2200 H   0  0  0  0  0  0  0  0  0  0  0  0
  138.5972  147.1144  198.8303 H   0  0  0  0  0  0  0  0  0  0  0  0
  140.0132  146.7522  197.7107 H   0  0  0  0  0  0  0  0  0  0  0  0
  138.3252  146.0144  195.9823 H   0  0  0  0  0  0  0  0  0  0  0  0
  136.8397  146.1390  199.3576 H   0  0  0  0  0  0  0  0  0  0  0  0
  135.2948  145.3749  198.7191 H   0  0  0  0  0  0  0  0  0  0  0  0
  136.5175  147.4181  197.3831 H   0  0  0  0  0  0  0  0  0  0  0  0
  134.8136  145.6458  196.4427 H   0  0  0  0  0  0  0  0  0  0  0  0
  136.2571  144.8190  195.7798 H   0  0  0  0  0  0  0  0  0  0  0  0
  136.3214  145.2804  193.4148 H   0  0  0  0  0  0  0  0  0  0  0  0
  137.6408  145.5874  190.1315 H   0  0  0  0  0  0  0  0  0  0  0  0
  138.1496  145.9703  191.7958 H   0  0  0  0  0  0  0  0  0  0  0  0
  138.2551  147.2504  190.5759 H   0  0  0  0  0  0  0  0  0  0  0  0
  136.1581  151.3764  192.0238 H   0  0  0  0  0  0  0  0  0  0  0  0
  137.1506  150.6710  190.6644 H   0  0  0  0  0  0  0  0  0  0  0  0
  137.5526  150.3315  192.4179 H   0  0  0  0  0  0  0  0  0  0  0  0
  135.3649  150.0133  194.1921 H   0  0  0  0  0  0  0  0  0  0  0  0
  135.3890  148.4602  196.1026 H   0  0  0  0  0  0  0  0  0  0  0  0
  137.9745  149.3273  198.8399 H   0  0  0  0  0  0  0  0  0  0  0  0
  137.6998  151.5352  197.7494 H   0  0  0  0  0  0  0  0  0  0  0  0
  140.2009  153.1772  196.9883 H   0  0  0  0  0  0  0  0  0  0  0  0
  138.3889  153.5218  198.0356 H   0  0  0  0  0  0  0  0  0  0  0  0
  1  2  1  0
  2  3  1  0
  3  4  1  0
  3  5  1  0
  5  6  1  0
  6  7  1  0
  5  8  1  0
  8  9  1  0
  9 10  1  0
 10 11  1  0
 11 12  2  0
 12 13  1  0
 13 14  1  0
 12 15  1  0
 15 16  2  0
 16 17  1  0
 17 18  1  0
 18 19  1  0
 19 20  1  0
 20 21  1  0
 21 22  1  0
 22 23  1  0
 23 24  1  0
 24 25  2  0
 25 26  1  0
 26 27  1  0
 27 28  1  0
 26 29  2  0
 29 30  1  0
 30 31  1  0
 29 32  1  0
 32 33  2  0
 19 34  2  0
 16 35  1  0
 35 36  2  0
  9 37  1  0
 37 38  1  0
 37  2  1  0
 36 11  1  0
 22 18  1  0
 33 24  1  0
  1 39  1  0
  2 40  1  6
  3 41  1  1
  4 42  1  0
  5 43  1  6
  6 44  1  0
  6 45  1  0
  7 46  1  0
  9 47  1  6
 14 48  1  0
 14 49  1  0
 14 50  1  0
 15 51  1  0
 17 52  1  0
 17 53  1  0
 18 54  1  6
 21 55  1  0
 21 56  1  0
 22 57  1  1
 23 58  1  0
 23 59  1  0
 25 60  1  0
 28 61  1  0
 28 62  1  0
 28 63  1  0
 31 64  1  0
 31 65  1  0
 31 66  1  0
 32 67  1  0
 33 68  1  0
 35 69  1  0
 36 70  1  0
 37 71  1  1
 38 72  1  0
M  END
>  <docking_score>  (2) 
-3.4260000000000002

$$$$

     RDKit          3D

 72 75  0  0  0  0  0  0  0  0999 V2000
  133.8973  151.8848  200.2508 O   0  0  0  0  0  0  0  0  0  0  0  0
  135.2433  151.4579  200.2295 C   0  0  1  0  0  0  0  0  0  0  0  0
  135.4701  150.2765  201.0909 C   0  0  2  0  0  0  0  0  0  0  0  0
  135.9124  150.7357  202.3531 O   0  0  0  0  0  0  0  0  0  0  0  0
  136.4502  149.2791  200.6103 C   0  0  1  0  0  0  0  0  0  0  0  0
  135.7900  147.8943  200.7077 C   0  0  0  0  0  0  0  0  0  0  0  0
  136.4765  146.9427  199.9928 O   0  0  0  0  0  0  0  0  0  0  0  0
  136.9056  149.4115  199.3404 O   0  0  0  0  0  0  0  0  0  0  0  0
  137.1417  150.7292  198.9341 C   0  0  1  0  0  0  0  0  0  0  0  0
  137.8107  150.7263  197.7433 O   0  0  0  0  0  0  0  0  0  0  0  0
  137.4784  150.4023  196.4765 C   0  0  0  0  0  0  0  0  0  0  0  0
  137.1603  149.1349  196.0648 C   0  0  0  0  0  0  0  0  0  0  0  0
  137.1481  148.0508  196.9150 O   0  0  0  0  0  0  0  0  0  0  0  0
  136.3370  146.9385  196.6424 C   0  0  0  0  0  0  0  0  0  0  0  0
  136.8311  148.9213  194.7201 C   0  0  0  0  0  0  0  0  0  0  0  0
  136.8162  149.9397  193.7986 C   0  0  0  0  0  0  0  0  0  0  0  0
  136.4620  149.6733  192.3847 C   0  0  0  0  0  0  0  0  0  0  0  0
  137.4588  148.7102  191.7441 C   0  0  1  0  0  0  0  0  0  0  0  0
  137.1110  148.4156  190.3320 C   0  0  0  0  0  0  0  0  0  0  0  0
  138.0334  149.0667  189.5052 O   0  0  0  0  0  0  0  0  0  0  0  0
  138.7384  150.0222  190.2919 C   0  0  0  0  0  0  0  0  0  0  0  0
  138.8162  149.3694  191.6420 C   0  0  2  0  0  0  0  0  0  0  0  0
  139.9018  148.3260  191.7195 C   0  0  0  0  0  0  0  0  0  0  0  0
  140.1641  147.8567  193.0955 C   0  0  0  0  0  0  0  0  0  0  0  0
  140.4577  148.7283  194.1161 C   0  0  0  0  0  0  0  0  0  0  0  0
  140.7030  148.2880  195.4120 C   0  0  0  0  0  0  0  0  0  0  0  0
  140.9989  149.1755  196.4375 O   0  0  0  0  0  0  0  0  0  0  0  0
  141.1635  150.5570  196.1735 C   0  0  0  0  0  0  0  0  0  0  0  0
  140.6585  146.9362  195.7189 C   0  0  0  0  0  0  0  0  0  0  0  0
  140.9064  146.5036  197.0239 O   0  0  0  0  0  0  0  0  0  0  0  0
  142.1182  145.7952  197.2559 C   0  0  0  0  0  0  0  0  0  0  0  0
  140.3651  146.0637  194.6998 C   0  0  0  0  0  0  0  0  0  0  0  0
  140.1216  146.5082  193.4110 C   0  0  0  0  0  0  0  0  0  0  0  0
  136.1684  147.7138  189.8886 O   0  0  0  0  0  0  0  0  0  0  0  0
  137.1368  151.2079  194.2207 C   0  0  0  0  0  0  0  0  0  0  0  0
  137.4633  151.4415  195.5368 C   0  0  0  0  0  0  0  0  0  0  0  0
  135.7133  151.3027  198.7997 C   0  0  2  0  0  0  0  0  0  0  0  0
  135.7363  152.5330  198.1764 O   0  0  0  0  0  0  0  0  0  0  0  0
  133.7683  152.6616  200.8380 H   0  0  0  0  0  0  0  0  0  0  0  0
  135.8166  152.3452  200.6313 H   0  0  0  0  0  0  0  0  0  0  0  0
  134.4598  149.8204  201.3122 H   0  0  0  0  0  0  0  0  0  0  0  0
  136.6695  151.3701  202.2154 H   0  0  0  0  0  0  0  0  0  0  0  0
  137.3517  149.1944  201.2867 H   0  0  0  0  0  0  0  0  0  0  0  0
  135.5725  147.6403  201.7437 H   0  0  0  0  0  0  0  0  0  0  0  0
  134.7882  148.0378  200.2059 H   0  0  0  0  0  0  0  0  0  0  0  0
  137.2628  147.3941  199.5531 H   0  0  0  0  0  0  0  0  0  0  0  0
  137.5891  151.2761  199.7814 H   0  0  0  0  0  0  0  0  0  0  0  0
  135.6879  146.6980  197.5302 H   0  0  0  0  0  0  0  0  0  0  0  0
  135.6550  147.1052  195.7785 H   0  0  0  0  0  0  0  0  0  0  0  0
  136.9890  146.0503  196.4088 H   0  0  0  0  0  0  0  0  0  0  0  0
  136.5812  147.8862  194.4300 H   0  0  0  0  0  0  0  0  0  0  0  0
  136.4867  150.5907  191.7595 H   0  0  0  0  0  0  0  0  0  0  0  0
  135.4643  149.1604  192.3058 H   0  0  0  0  0  0  0  0  0  0  0  0
  137.5737  147.7827  192.3345 H   0  0  0  0  0  0  0  0  0  0  0  0
  138.0335  150.8904  190.3993 H   0  0  0  0  0  0  0  0  0  0  0  0
  139.6972  150.3237  189.8614 H   0  0  0  0  0  0  0  0  0  0  0  0
  138.9048  150.1089  192.4653 H   0  0  0  0  0  0  0  0  0  0  0  0
  140.8317  148.8083  191.3055 H   0  0  0  0  0  0  0  0  0  0  0  0
  139.6538  147.4825  191.0572 H   0  0  0  0  0  0  0  0  0  0  0  0
  140.5145  149.7959  193.9645 H   0  0  0  0  0  0  0  0  0  0  0  0
  142.1480  150.7705  195.7406 H   0  0  0  0  0  0  0  0  0  0  0  0
  141.1416  151.0663  197.1810 H   0  0  0  0  0  0  0  0  0  0  0  0
  140.3380  150.9844  195.6045 H   0  0  0  0  0  0  0  0  0  0  0  0
  142.1900  145.6973  198.3763 H   0  0  0  0  0  0  0  0  0  0  0  0
  142.9918  146.3629  196.8780 H   0  0  0  0  0  0  0  0  0  0  0  0
  142.0937  144.7677  196.8536 H   0  0  0  0  0  0  0  0  0  0  0  0
  140.3282  145.0054  194.9319 H   0  0  0  0  0  0  0  0  0  0  0  0
  139.8944  145.7883  192.6381 H   0  0  0  0  0  0  0  0  0  0  0  0
  137.1163  151.9958  193.4667 H   0  0  0  0  0  0  0  0  0  0  0  0
  137.7092  152.4517  195.8289 H   0  0  0  0  0  0  0  0  0  0  0  0
  135.1369  150.5347  198.2404 H   0  0  0  0  0  0  0  0  0  0  0  0
  134.7932  152.8242  198.0627 H   0  0  0  0  0  0  0  0  0  0  0  0
  1  2  1  0
  2  3  1  0
  3  4  1  0
  3  5  1  0
  5  6  1  0
  6  7  1  0
  5  8  1  0
  8  9  1  0
  9 10  1  0
 10 11  1  0
 11 12  2  0
 12 13  1  0
 13 14  1  0
 12 15  1  0
 15 16  2  0
 16 17  1  0
 17 18  1  0
 18 19  1  0
 19 20  1  0
 20 21  1  0
 21 22  1  0
 22 23  1  0
 23 24  1  0
 24 25  2  0
 25 26  1  0
 26 27  1  0
 27 28  1  0
 26 29  2  0
 29 30  1  0
 30 31  1  0
 29 32  1  0
 32 33  2  0
 19 34  2  0
 16 35  1  0
 35 36  2  0
  9 37  1  0
 37 38  1  0
 37  2  1  0
 36 11  1  0
 22 18  1  0
 33 24  1  0
  1 39  1  0
  2 40  1  1
  3 41  1  1
  4 42  1  0
  5 43  1  1
  6 44  1  0
  6 45  1  0
  7 46  1  0
  9 47  1  1
 14 48  1  0
 14 49  1  0
 14 50  1  0
 15 51  1  0
 17 52  1  0
 17 53  1  0
 18 54  1  1
 21 55  1  0
 21 56  1  0
 22 57  1  1
 23 58  1  0
 23 59  1  0
 25 60  1  0
 28 61  1  0
 28 62  1  0
 28 63  1  0
 31 64  1  0
 31 65  1  0
 31 66  1  0
 32 67  1  0
 33 68  1  0
 35 69  1  0
 36 70  1  0
 37 71  1  6
 38 72  1  0
M  END
>  <docking_score>  (3) 
-3.0910000000000002

$$$$
