
     RDKit          3D

 41 43  0  0  0  0  0  0  0  0999 V2000
  136.1333  150.9290  197.9674 O   0  0  0  0  0  0  0  0  0  0  0  0
  136.6904  151.2149  196.8900 C   0  0  0  0  0  0  0  0  0  0  0  0
  137.6507  152.2144  196.8172 C   0  0  0  0  0  0  0  0  0  0  0  0
  138.2720  152.5422  195.6478 C   0  0  0  0  0  0  0  0  0  0  0  0
  139.2727  153.5922  195.6015 C   0  0  0  0  0  0  0  0  0  0  0  0
  139.2893  154.6062  196.5662 C   0  0  0  0  0  0  0  0  0  0  0  0
  140.1978  155.6172  196.5801 C   0  0  0  0  0  0  0  0  0  0  0  0
  141.1626  155.6696  195.6054 C   0  0  0  0  0  0  0  0  0  0  0  0
  142.1210  156.6830  195.5686 O   0  0  0  0  0  0  0  0  0  0  0  0
  143.0327  156.9369  196.5927 C   0  0  0  0  0  0  0  0  0  0  0  0
  141.2000  154.7006  194.6268 C   0  0  0  0  0  0  0  0  0  0  0  0
  142.1772  154.7652  193.6507 O   0  0  0  0  0  0  0  0  0  0  0  0
  140.2498  153.6710  194.6392 C   0  0  0  0  0  0  0  0  0  0  0  0
  137.9361  151.8829  194.5825 O   0  0  0  0  0  0  0  0  0  0  0  0
  137.0170  150.9110  194.5983 C   0  0  0  0  0  0  0  0  0  0  0  0
  136.7101  150.2514  193.4236 C   0  0  0  0  0  0  0  0  0  0  0  0
  135.7737  149.2489  193.3966 C   0  0  0  0  0  0  0  0  0  0  0  0
  135.4657  148.5873  192.2190 O   0  0  0  0  0  0  0  0  0  0  0  0
  135.4165  149.2666  190.9672 C   0  0  0  0  0  0  0  0  0  0  0  0
  135.1255  148.8860  194.5433 C   0  0  0  0  0  0  0  0  0  0  0  0
  134.1626  147.8695  194.5664 O   0  0  0  0  0  0  0  0  0  0  0  0
  134.6682  146.5599  194.8539 C   0  0  0  0  0  0  0  0  0  0  0  0
  135.4017  149.5278  195.7704 C   0  0  0  0  0  0  0  0  0  0  0  0
  134.7164  149.1149  196.8797 O   0  0  0  0  0  0  0  0  0  0  0  0
  136.3570  150.5367  195.7494 C   0  0  0  0  0  0  0  0  0  0  0  0
  137.8564  152.7014  197.7631 H   0  0  0  0  0  0  0  0  0  0  0  0
  138.5201  154.5453  197.3249 H   0  0  0  0  0  0  0  0  0  0  0  0
  140.1924  156.4031  197.3472 H   0  0  0  0  0  0  0  0  0  0  0  0
  143.1415  155.9860  197.1816 H   0  0  0  0  0  0  0  0  0  0  0  0
  142.6848  157.7675  197.2332 H   0  0  0  0  0  0  0  0  0  0  0  0
  144.0454  157.2182  196.2381 H   0  0  0  0  0  0  0  0  0  0  0  0
  141.9477  154.5192  192.6988 H   0  0  0  0  0  0  0  0  0  0  0  0
  140.3104  152.9338  193.8606 H   0  0  0  0  0  0  0  0  0  0  0  0
  137.2510  150.5727  192.5310 H   0  0  0  0  0  0  0  0  0  0  0  0
  135.5837  148.5169  190.1827 H   0  0  0  0  0  0  0  0  0  0  0  0
  134.3919  149.7031  190.8147 H   0  0  0  0  0  0  0  0  0  0  0  0
  136.1677  150.0546  190.9001 H   0  0  0  0  0  0  0  0  0  0  0  0
  133.7542  145.9059  194.9207 H   0  0  0  0  0  0  0  0  0  0  0  0
  135.1567  146.5240  195.8388 H   0  0  0  0  0  0  0  0  0  0  0  0
  135.2727  146.1692  194.0317 H   0  0  0  0  0  0  0  0  0  0  0  0
  134.5935  148.2662  197.3145 H   0  0  0  0  0  0  0  0  0  0  0  0
  1  2  2  0
  2  3  1  0
  3  4  2  0
  4  5  1  0
  5  6  2  0
  6  7  1  0
  7  8  2  0
  8  9  1  0
  9 10  1  0
  8 11  1  0
 11 12  1  0
 11 13  2  0
  4 14  1  0
 14 15  1  0
 15 16  2  0
 16 17  1  0
 17 18  1  0
 18 19  1  0
 17 20  2  0
 20 21  1  0
 21 22  1  0
 20 23  1  0
 23 24  1  0
 23 25  2  0
 25  2  1  0
 13  5  1  0
 25 15  1  0
  3 26  1  0
  6 27  1  0
  7 28  1  0
 10 29  1  0
 10 30  1  0
 10 31  1  0
 12 32  1  0
 13 33  1  0
 16 34  1  0
 19 35  1  0
 19 36  1  0
 19 37  1  0
 22 38  1  0
 22 39  1  0
 22 40  1  0
 24 41  1  0
M  END
>  <docking_score>  (1) 
-4.7560000000000002

$$$$

     RDKit          3D

 41 43  0  0  0  0  0  0  0  0999 V2000
  135.1745  148.8201  193.9875 O   0  0  0  0  0  0  0  0  0  0  0  0
  136.0484  149.6938  194.1480 C   0  0  0  0  0  0  0  0  0  0  0  0
  137.0206  149.9273  193.1853 C   0  0  0  0  0  0  0  0  0  0  0  0
  137.9855  150.8787  193.3420 C   0  0  0  0  0  0  0  0  0  0  0  0
  138.9899  151.1009  192.3182 C   0  0  0  0  0  0  0  0  0  0  0  0
  140.1202  151.8823  192.5843 C   0  0  0  0  0  0  0  0  0  0  0  0
  141.0966  152.1292  191.6713 C   0  0  0  0  0  0  0  0  0  0  0  0
  140.9920  151.5943  190.4117 C   0  0  0  0  0  0  0  0  0  0  0  0
  141.9626  151.8132  189.4334 O   0  0  0  0  0  0  0  0  0  0  0  0
  143.1270  151.0574  189.3020 C   0  0  0  0  0  0  0  0  0  0  0  0
  139.9027  150.8158  190.0870 C   0  0  0  0  0  0  0  0  0  0  0  0
  139.8097  150.2831  188.8145 O   0  0  0  0  0  0  0  0  0  0  0  0
  138.9127  150.5794  191.0498 C   0  0  0  0  0  0  0  0  0  0  0  0
  137.9721  151.5750  194.4363 O   0  0  0  0  0  0  0  0  0  0  0  0
  137.0577  151.3900  195.3951 C   0  0  0  0  0  0  0  0  0  0  0  0
  137.1058  152.1697  196.5348 C   0  0  0  0  0  0  0  0  0  0  0  0
  136.1870  152.0120  197.5416 C   0  0  0  0  0  0  0  0  0  0  0  0
  136.2348  152.7936  198.6844 O   0  0  0  0  0  0  0  0  0  0  0  0
  135.6482  154.0915  198.7311 C   0  0  0  0  0  0  0  0  0  0  0  0
  135.2022  151.0717  197.4291 C   0  0  0  0  0  0  0  0  0  0  0  0
  134.2422  150.8732  198.4291 O   0  0  0  0  0  0  0  0  0  0  0  0
  134.6994  150.1424  199.5738 C   0  0  0  0  0  0  0  0  0  0  0  0
  135.1081  150.2487  196.2854 C   0  0  0  0  0  0  0  0  0  0  0  0
  134.0978  149.3280  196.2381 O   0  0  0  0  0  0  0  0  0  0  0  0
  136.0599  150.4443  195.2920 C   0  0  0  0  0  0  0  0  0  0  0  0
  136.9409  149.2916  192.3113 H   0  0  0  0  0  0  0  0  0  0  0  0
  140.1823  152.2938  193.5832 H   0  0  0  0  0  0  0  0  0  0  0  0
  141.9758  152.7456  191.9016 H   0  0  0  0  0  0  0  0  0  0  0  0
  143.7396  151.5327  188.4886 H   0  0  0  0  0  0  0  0  0  0  0  0
  142.8890  150.0053  189.0618 H   0  0  0  0  0  0  0  0  0  0  0  0
  143.7578  151.0351  190.2142 H   0  0  0  0  0  0  0  0  0  0  0  0
  140.5741  150.4045  188.1663 H   0  0  0  0  0  0  0  0  0  0  0  0
  138.0786  149.9679  190.7605 H   0  0  0  0  0  0  0  0  0  0  0  0
  137.9085  152.9085  196.5839 H   0  0  0  0  0  0  0  0  0  0  0  0
  136.0117  154.5810  199.6442 H   0  0  0  0  0  0  0  0  0  0  0  0
  136.0004  154.6967  197.8516 H   0  0  0  0  0  0  0  0  0  0  0  0
  134.5583  154.0476  198.7366 H   0  0  0  0  0  0  0  0  0  0  0  0
  135.4102  149.3735  199.1603 H   0  0  0  0  0  0  0  0  0  0  0  0
  133.8780  149.5898  200.0534 H   0  0  0  0  0  0  0  0  0  0  0  0
  135.2805  150.7726  200.2516 H   0  0  0  0  0  0  0  0  0  0  0  0
  133.6553  148.7838  196.8957 H   0  0  0  0  0  0  0  0  0  0  0  0
  1  2  2  0
  2  3  1  0
  3  4  2  0
  4  5  1  0
  5  6  2  0
  6  7  1  0
  7  8  2  0
  8  9  1  0
  9 10  1  0
  8 11  1  0
 11 12  1  0
 11 13  2  0
  4 14  1  0
 14 15  1  0
 15 16  2  0
 16 17  1  0
 17 18  1  0
 18 19  1  0
 17 20  2  0
 20 21  1  0
 21 22  1  0
 20 23  1  0
 23 24  1  0
 23 25  2  0
 25  2  1  0
 13  5  1  0
 25 15  1  0
  3 26  1  0
  6 27  1  0
  7 28  1  0
 10 29  1  0
 10 30  1  0
 10 31  1  0
 12 32  1  0
 13 33  1  0
 16 34  1  0
 19 35  1  0
 19 36  1  0
 19 37  1  0
 22 38  1  0
 22 39  1  0
 22 40  1  0
 24 41  1  0
M  END
>  <docking_score>  (2) 
-4.7300000000000004

$$$$

     RDKit          3D

 41 43  0  0  0  0  0  0  0  0999 V2000
  135.8813  149.3187  192.6169 O   0  0  0  0  0  0  0  0  0  0  0  0
  136.5335  150.0016  193.4301 C   0  0  0  0  0  0  0  0  0  0  0  0
  136.0081  150.3463  194.6677 C   0  0  0  0  0  0  0  0  0  0  0  0
  136.7057  151.0927  195.5716 C   0  0  0  0  0  0  0  0  0  0  0  0
  136.1309  151.4381  196.8586 C   0  0  0  0  0  0  0  0  0  0  0  0
  136.4016  152.6763  197.4525 C   0  0  0  0  0  0  0  0  0  0  0  0
  135.8959  153.0614  198.6541 C   0  0  0  0  0  0  0  0  0  0  0  0
  135.0719  152.2072  199.3434 C   0  0  0  0  0  0  0  0  0  0  0  0
  134.5236  152.5477  200.5804 O   0  0  0  0  0  0  0  0  0  0  0  0
  133.7773  153.7019  200.8158 C   0  0  0  0  0  0  0  0  0  0  0  0
  134.7669  150.9732  198.8121 C   0  0  0  0  0  0  0  0  0  0  0  0
  133.9356  150.1223  199.5169 O   0  0  0  0  0  0  0  0  0  0  0  0
  135.3036  150.6049  197.5714 C   0  0  0  0  0  0  0  0  0  0  0  0
  137.8978  151.4810  195.2390 O   0  0  0  0  0  0  0  0  0  0  0  0
  138.4505  151.1762  194.0595 C   0  0  0  0  0  0  0  0  0  0  0  0
  139.7258  151.6250  193.7743 C   0  0  0  0  0  0  0  0  0  0  0  0
  140.3287  151.3345  192.5764 C   0  0  0  0  0  0  0  0  0  0  0  0
  141.6074  151.7841  192.2900 O   0  0  0  0  0  0  0  0  0  0  0  0
  142.7661  151.0623  192.6992 C   0  0  0  0  0  0  0  0  0  0  0  0
  139.6687  150.5899  191.6402 C   0  0  0  0  0  0  0  0  0  0  0  0
  140.2417  150.2675  190.4037 O   0  0  0  0  0  0  0  0  0  0  0  0
  140.0917  151.2651  189.3859 C   0  0  0  0  0  0  0  0  0  0  0  0
  138.3639  150.1068  191.8813 C   0  0  0  0  0  0  0  0  0  0  0  0
  137.7614  149.3677  190.9008 O   0  0  0  0  0  0  0  0  0  0  0  0
  137.7937  150.4257  193.1077 C   0  0  0  0  0  0  0  0  0  0  0  0
  135.0067  149.9715  194.8443 H   0  0  0  0  0  0  0  0  0  0  0  0
  137.0532  153.3338  196.8920 H   0  0  0  0  0  0  0  0  0  0  0  0
  136.1216  154.0384  199.1020 H   0  0  0  0  0  0  0  0  0  0  0  0
  132.9174  153.6927  200.0925 H   0  0  0  0  0  0  0  0  0  0  0  0
  134.3992  154.6064  200.6877 H   0  0  0  0  0  0  0  0  0  0  0  0
  133.3448  153.7614  201.8356 H   0  0  0  0  0  0  0  0  0  0  0  0
  134.1728  149.8650  200.4638 H   0  0  0  0  0  0  0  0  0  0  0  0
  135.0436  149.6355  197.1892 H   0  0  0  0  0  0  0  0  0  0  0  0
  140.2170  152.2164  194.5498 H   0  0  0  0  0  0  0  0  0  0  0  0
  143.2464  151.6425  193.4980 H   0  0  0  0  0  0  0  0  0  0  0  0
  142.4600  150.0700  193.1297 H   0  0  0  0  0  0  0  0  0  0  0  0
  143.4638  150.9082  191.8751 H   0  0  0  0  0  0  0  0  0  0  0  0
  140.7140  150.8940  188.5242 H   0  0  0  0  0  0  0  0  0  0  0  0
  140.5237  152.2273  189.6982 H   0  0  0  0  0  0  0  0  0  0  0  0
  139.0620  151.3244  189.0251 H   0  0  0  0  0  0  0  0  0  0  0  0
  137.8637  149.3093  189.9465 H   0  0  0  0  0  0  0  0  0  0  0  0
  1  2  2  0
  2  3  1  0
  3  4  2  0
  4  5  1  0
  5  6  2  0
  6  7  1  0
  7  8  2  0
  8  9  1  0
  9 10  1  0
  8 11  1  0
 11 12  1  0
 11 13  2  0
  4 14  1  0
 14 15  1  0
 15 16  2  0
 16 17  1  0
 17 18  1  0
 18 19  1  0
 17 20  2  0
 20 21  1  0
 21 22  1  0
 20 23  1  0
 23 24  1  0
 23 25  2  0
 25  2  1  0
 13  5  1  0
 25 15  1  0
  3 26  1  0
  6 27  1  0
  7 28  1  0
 10 29  1  0
 10 30  1  0
 10 31  1  0
 12 32  1  0
 13 33  1  0
 16 34  1  0
 19 35  1  0
 19 36  1  0
 19 37  1  0
 22 38  1  0
 22 39  1  0
 22 40  1  0
 24 41  1  0
M  END
>  <docking_score>  (3) 
-4.5190000000000001

$$$$
