
     RDKit          3D

 27 26  0  0  0  0  0  0  0  0999 V2000
  138.6323  151.9602  177.2243 C   0  0  0  0  0  0  0  0  0  0  0  0
  138.9160  153.3321  177.7049 C   0  0  0  0  0  0  0  0  0  0  0  0
  138.1818  153.8175  178.8999 C   0  0  0  0  0  0  0  0  0  0  0  0
  139.7832  154.1137  177.1121 C   0  0  0  0  0  0  0  0  0  0  0  0
  140.5687  153.7103  175.9035 C   0  0  0  0  0  0  0  0  0  0  0  0
  140.2134  154.6671  174.8083 C   0  0  0  0  0  0  0  0  0  0  0  0
  140.9569  155.9304  174.9770 C   0  0  0  0  0  0  0  0  0  0  0  0
  142.3734  155.9202  175.4429 C   0  0  0  0  0  0  0  0  0  0  0  0
  140.3803  157.0781  174.7189 C   0  0  0  0  0  0  0  0  0  0  0  0
  141.0626  158.3472  174.8677 C   0  0  0  0  0  0  0  0  0  0  0  0
  141.6841  158.8470  173.9153 O   0  0  0  0  0  0  0  0  0  0  0  0
  137.5792  151.6622  177.4081 H   0  0  0  0  0  0  0  0  0  0  0  0
  138.8030  151.8418  176.1305 H   0  0  0  0  0  0  0  0  0  0  0  0
  139.2552  151.1902  177.7312 H   0  0  0  0  0  0  0  0  0  0  0  0
  137.5616  153.0096  179.3651 H   0  0  0  0  0  0  0  0  0  0  0  0
  137.4517  154.5826  178.5409 H   0  0  0  0  0  0  0  0  0  0  0  0
  138.8186  154.3177  179.6372 H   0  0  0  0  0  0  0  0  0  0  0  0
  139.9786  155.1177  177.4790 H   0  0  0  0  0  0  0  0  0  0  0  0
  141.6463  153.8115  176.1273 H   0  0  0  0  0  0  0  0  0  0  0  0
  140.3844  152.6472  175.6459 H   0  0  0  0  0  0  0  0  0  0  0  0
  140.4117  154.2137  173.8106 H   0  0  0  0  0  0  0  0  0  0  0  0
  139.1088  154.8455  174.8961 H   0  0  0  0  0  0  0  0  0  0  0  0
  143.0131  155.2151  174.8760 H   0  0  0  0  0  0  0  0  0  0  0  0
  142.7572  156.9435  175.4828 H   0  0  0  0  0  0  0  0  0  0  0  0
  142.3877  155.5430  176.4952 H   0  0  0  0  0  0  0  0  0  0  0  0
  139.3457  157.1330  174.3719 H   0  0  0  0  0  0  0  0  0  0  0  0
  141.0350  158.8665  175.8083 H   0  0  0  0  0  0  0  0  0  0  0  0
  1  2  1  0
  2  3  1  0
  2  4  2  3
  4  5  1  0
  5  6  1  0
  6  7  1  0
  7  8  1  0
  7  9  2  0
  9 10  1  0
 10 11  2  0
  1 12  1  0
  1 13  1  0
  1 14  1  0
  3 15  1  0
  3 16  1  0
  3 17  1  0
  4 18  1  0
  5 19  1  0
  5 20  1  0
  6 21  1  0
  6 22  1  0
  8 23  1  0
  8 24  1  0
  8 25  1  0
  9 26  1  0
 10 27  1  0
M  END
>  <docking_score>  (1) 
-4.024

$$$$

     RDKit          3D

 27 26  0  0  0  0  0  0  0  0999 V2000
  139.6175  156.9402  172.8771 C   0  0  0  0  0  0  0  0  0  0  0  0
  140.8657  157.2963  173.5904 C   0  0  0  0  0  0  0  0  0  0  0  0
  141.5457  158.5612  173.2158 C   0  0  0  0  0  0  0  0  0  0  0  0
  141.3751  156.5363  174.5270 C   0  0  0  0  0  0  0  0  0  0  0  0
  140.7599  155.2458  174.9701 C   0  0  0  0  0  0  0  0  0  0  0  0
  140.3966  155.4042  176.4138 C   0  0  0  0  0  0  0  0  0  0  0  0
  139.6959  154.1987  176.8961 C   0  0  0  0  0  0  0  0  0  0  0  0
  139.9707  152.8664  176.2853 C   0  0  0  0  0  0  0  0  0  0  0  0
  138.8224  154.2846  177.8687 C   0  0  0  0  0  0  0  0  0  0  0  0
  138.1059  153.1344  178.3804 C   0  0  0  0  0  0  0  0  0  0  0  0
  137.0251  152.7864  177.8764 O   0  0  0  0  0  0  0  0  0  0  0  0
  138.7253  157.0153  173.5328 H   0  0  0  0  0  0  0  0  0  0  0  0
  139.4171  157.5988  172.0020 H   0  0  0  0  0  0  0  0  0  0  0  0
  139.6237  155.8947  172.4967 H   0  0  0  0  0  0  0  0  0  0  0  0
  141.3426  159.3784  173.9538 H   0  0  0  0  0  0  0  0  0  0  0  0
  141.0839  158.9042  172.2586 H   0  0  0  0  0  0  0  0  0  0  0  0
  142.6171  158.4462  173.0202 H   0  0  0  0  0  0  0  0  0  0  0  0
  142.2921  156.8138  175.0400 H   0  0  0  0  0  0  0  0  0  0  0  0
  139.8360  155.0720  174.3889 H   0  0  0  0  0  0  0  0  0  0  0  0
  141.4395  154.3920  174.7711 H   0  0  0  0  0  0  0  0  0  0  0  0
  141.3027  155.6151  177.0262 H   0  0  0  0  0  0  0  0  0  0  0  0
  139.7229  156.3002  176.4694 H   0  0  0  0  0  0  0  0  0  0  0  0
  139.1570  152.5166  175.6194 H   0  0  0  0  0  0  0  0  0  0  0  0
  140.9614  152.8689  175.8221 H   0  0  0  0  0  0  0  0  0  0  0  0
  140.0159  152.1120  177.1091 H   0  0  0  0  0  0  0  0  0  0  0  0
  138.5923  155.2392  178.3480 H   0  0  0  0  0  0  0  0  0  0  0  0
  138.5075  152.5723  179.2038 H   0  0  0  0  0  0  0  0  0  0  0  0
  1  2  1  0
  2  3  1  0
  2  4  2  3
  4  5  1  0
  5  6  1  0
  6  7  1  0
  7  8  1  0
  7  9  2  0
  9 10  1  0
 10 11  2  0
  1 12  1  0
  1 13  1  0
  1 14  1  0
  3 15  1  0
  3 16  1  0
  3 17  1  0
  4 18  1  0
  5 19  1  0
  5 20  1  0
  6 21  1  0
  6 22  1  0
  8 23  1  0
  8 24  1  0
  8 25  1  0
  9 26  1  0
 10 27  1  0
M  END
>  <docking_score>  (2) 
-3.847

$$$$

     RDKit          3D

 27 26  0  0  0  0  0  0  0  0999 V2000
  114.4463  153.7016  180.4188 C   0  0  0  0  0  0  0  0  0  0  0  0
  114.8263  154.8501  181.2734 C   0  0  0  0  0  0  0  0  0  0  0  0
  113.7387  155.6502  181.8895 C   0  0  0  0  0  0  0  0  0  0  0  0
  116.0761  155.1713  181.4950 C   0  0  0  0  0  0  0  0  0  0  0  0
  117.2368  154.4236  180.9170 C   0  0  0  0  0  0  0  0  0  0  0  0
  117.9574  155.3667  180.0044 C   0  0  0  0  0  0  0  0  0  0  0  0
  117.8636  154.8944  178.6097 C   0  0  0  0  0  0  0  0  0  0  0  0
  119.0108  154.1895  177.9689 C   0  0  0  0  0  0  0  0  0  0  0  0
  116.7690  155.0891  177.9165 C   0  0  0  0  0  0  0  0  0  0  0  0
  116.6230  154.6472  176.5448 C   0  0  0  0  0  0  0  0  0  0  0  0
  116.6739  155.4621  175.6086 O   0  0  0  0  0  0  0  0  0  0  0  0
  115.3122  153.0463  180.1898 H   0  0  0  0  0  0  0  0  0  0  0  0
  113.6775  153.0484  180.8899 H   0  0  0  0  0  0  0  0  0  0  0  0
  114.0387  154.0165  179.4326 H   0  0  0  0  0  0  0  0  0  0  0  0
  113.1042  155.0333  182.5754 H   0  0  0  0  0  0  0  0  0  0  0  0
  113.0602  155.9644  181.0600 H   0  0  0  0  0  0  0  0  0  0  0  0
  114.0854  156.5698  182.3725 H   0  0  0  0  0  0  0  0  0  0  0  0
  116.3363  156.0176  182.1251 H   0  0  0  0  0  0  0  0  0  0  0  0
  117.9187  154.1327  181.7367 H   0  0  0  0  0  0  0  0  0  0  0  0
  116.9013  153.4899  180.4208 H   0  0  0  0  0  0  0  0  0  0  0  0
  117.5533  156.3993  180.1077 H   0  0  0  0  0  0  0  0  0  0  0  0
  119.0265  155.3757  180.3462 H   0  0  0  0  0  0  0  0  0  0  0  0
  118.6959  153.4463  177.2097 H   0  0  0  0  0  0  0  0  0  0  0  0
  119.7394  154.9207  177.6078 H   0  0  0  0  0  0  0  0  0  0  0  0
  119.5340  153.5946  178.7577 H   0  0  0  0  0  0  0  0  0  0  0  0
  115.9027  155.5975  178.3465 H   0  0  0  0  0  0  0  0  0  0  0  0
  116.4688  153.6059  176.3280 H   0  0  0  0  0  0  0  0  0  0  0  0
  1  2  1  0
  2  3  1  0
  2  4  2  3
  4  5  1  0
  5  6  1  0
  6  7  1  0
  7  8  1  0
  7  9  2  0
  9 10  1  0
 10 11  2  0
  1 12  1  0
  1 13  1  0
  1 14  1  0
  3 15  1  0
  3 16  1  0
  3 17  1  0
  4 18  1  0
  5 19  1  0
  5 20  1  0
  6 21  1  0
  6 22  1  0
  8 23  1  0
  8 24  1  0
  8 25  1  0
  9 26  1  0
 10 27  1  0
M  END
>  <docking_score>  (3) 
-3.484

$$$$
