
     RDKit          3D

 32 34  0  0  0  0  0  0  0  0999 V2000
  119.8414  154.5615  178.1331 O   0  0  0  0  0  0  0  0  0  0  0  0
  118.6166  154.7585  178.0868 C   0  0  0  0  0  0  0  0  0  0  0  0
  117.9619  155.3529  179.2165 C   0  0  0  0  0  0  0  0  0  0  0  0
  118.7601  155.6709  180.2637 O   0  0  0  0  0  0  0  0  0  0  0  0
  116.6176  155.5588  179.1528 C   0  0  0  0  0  0  0  0  0  0  0  0
  115.8373  156.1507  180.2313 C   0  0  0  0  0  0  0  0  0  0  0  0
  115.7863  157.4677  180.5558 C   0  0  0  0  0  0  0  0  0  0  0  0
  114.9377  157.9678  181.5464 C   0  0  0  0  0  0  0  0  0  0  0  0
  114.1360  157.0892  182.2087 C   0  0  0  0  0  0  0  0  0  0  0  0
  113.2885  157.5651  183.1932 O   0  0  0  0  0  0  0  0  0  0  0  0
  114.1722  155.7556  181.9005 C   0  0  0  0  0  0  0  0  0  0  0  0
  114.9957  155.2485  180.9328 C   0  0  0  0  0  0  0  0  0  0  0  0
  115.9225  155.2154  178.0464 O   0  0  0  0  0  0  0  0  0  0  0  0
  116.4693  154.6778  176.9997 C   0  0  0  0  0  0  0  0  0  0  0  0
  115.6732  154.3532  175.8960 C   0  0  0  0  0  0  0  0  0  0  0  0
  114.3098  154.5978  175.9042 O   0  0  0  0  0  0  0  0  0  0  0  0
  116.2951  153.7844  174.8077 C   0  0  0  0  0  0  0  0  0  0  0  0
  115.4873  153.4691  173.7211 O   0  0  0  0  0  0  0  0  0  0  0  0
  117.6499  153.5327  174.7790 C   0  0  0  0  0  0  0  0  0  0  0  0
  118.3870  153.8713  175.8910 C   0  0  0  0  0  0  0  0  0  0  0  0
  119.7532  153.6372  175.9088 O   0  0  0  0  0  0  0  0  0  0  0  0
  117.8287  154.4475  177.0233 C   0  0  0  0  0  0  0  0  0  0  0  0
  119.6078  155.4610  180.6047 H   0  0  0  0  0  0  0  0  0  0  0  0
  116.4663  158.1782  180.0842 H   0  0  0  0  0  0  0  0  0  0  0  0
  114.9572  159.0390  181.7432 H   0  0  0  0  0  0  0  0  0  0  0  0
  113.0671  158.5409  183.2938 H   0  0  0  0  0  0  0  0  0  0  0  0
  113.5266  155.0857  182.4429 H   0  0  0  0  0  0  0  0  0  0  0  0
  115.0144  154.1937  180.6996 H   0  0  0  0  0  0  0  0  0  0  0  0
  113.9912  155.4592  175.4817 H   0  0  0  0  0  0  0  0  0  0  0  0
  114.5269  153.2213  173.7705 H   0  0  0  0  0  0  0  0  0  0  0  0
  118.0796  153.0845  173.8963 H   0  0  0  0  0  0  0  0  0  0  0  0
  120.4077  154.4123  175.9471 H   0  0  0  0  0  0  0  0  0  0  0  0
  1  2  2  0
  2  3  1  0
  3  4  1  0
  3  5  2  0
  5  6  1  0
  6  7  2  0
  7  8  1  0
  8  9  2  0
  9 10  1  0
  9 11  1  0
 11 12  2  0
  5 13  1  0
 13 14  1  0
 14 15  2  0
 15 16  1  0
 15 17  1  0
 17 18  1  0
 17 19  2  0
 19 20  1  0
 20 21  1  0
 20 22  2  0
 22  2  1  0
 12  6  1  0
 22 14  1  0
  4 23  1  0
  7 24  1  0
  8 25  1  0
 10 26  1  0
 11 27  1  0
 12 28  1  0
 16 29  1  0
 18 30  1  0
 19 31  1  0
 21 32  1  0
M  END
>  <docking_score>  (1) 
-6.0789999999999997

$$$$

     RDKit          3D

 32 34  0  0  0  0  0  0  0  0999 V2000
  119.8648  154.7823  178.5378 O   0  0  0  0  0  0  0  0  0  0  0  0
  118.6400  154.9521  178.4264 C   0  0  0  0  0  0  0  0  0  0  0  0
  117.9215  155.5779  179.4989 C   0  0  0  0  0  0  0  0  0  0  0  0
  118.6631  155.9543  180.5682 O   0  0  0  0  0  0  0  0  0  0  0  0
  116.5782  155.7533  179.3641 C   0  0  0  0  0  0  0  0  0  0  0  0
  115.7366  156.3720  180.3797 C   0  0  0  0  0  0  0  0  0  0  0  0
  115.0071  155.7225  181.3222 C   0  0  0  0  0  0  0  0  0  0  0  0
  114.2991  156.3932  182.3224 C   0  0  0  0  0  0  0  0  0  0  0  0
  114.3476  157.7536  182.3411 C   0  0  0  0  0  0  0  0  0  0  0  0
  113.6530  158.4363  183.3238 O   0  0  0  0  0  0  0  0  0  0  0  0
  115.0746  158.4306  181.3988 C   0  0  0  0  0  0  0  0  0  0  0  0
  115.7749  157.7903  180.4132 C   0  0  0  0  0  0  0  0  0  0  0  0
  115.9428  155.3514  178.2416 O   0  0  0  0  0  0  0  0  0  0  0  0
  116.5486  154.7833  177.2446 C   0  0  0  0  0  0  0  0  0  0  0  0
  115.8120  154.3982  176.1193 C   0  0  0  0  0  0  0  0  0  0  0  0
  114.4453  154.6148  176.0539 O   0  0  0  0  0  0  0  0  0  0  0  0
  116.4952  153.7989  175.0856 C   0  0  0  0  0  0  0  0  0  0  0  0
  115.7459  153.4235  173.9765 O   0  0  0  0  0  0  0  0  0  0  0  0
  117.8543  153.5742  175.1305 C   0  0  0  0  0  0  0  0  0  0  0  0
  118.5314  153.9724  176.2607 C   0  0  0  0  0  0  0  0  0  0  0  0
  119.8994  153.7674  176.3518 O   0  0  0  0  0  0  0  0  0  0  0  0
  117.9094  154.5822  177.3411 C   0  0  0  0  0  0  0  0  0  0  0  0
  119.4807  156.3716  180.7585 H   0  0  0  0  0  0  0  0  0  0  0  0
  114.9013  154.6375  181.2863 H   0  0  0  0  0  0  0  0  0  0  0  0
  113.7404  155.7958  183.0416 H   0  0  0  0  0  0  0  0  0  0  0  0
  112.9357  159.1091  183.1137 H   0  0  0  0  0  0  0  0  0  0  0  0
  115.0923  159.5066  181.4397 H   0  0  0  0  0  0  0  0  0  0  0  0
  116.3446  158.3369  179.6757 H   0  0  0  0  0  0  0  0  0  0  0  0
  114.0508  154.8132  175.1445 H   0  0  0  0  0  0  0  0  0  0  0  0
  115.2798  154.0462  173.3590 H   0  0  0  0  0  0  0  0  0  0  0  0
  118.3337  153.0997  174.2881 H   0  0  0  0  0  0  0  0  0  0  0  0
  120.3238  153.5137  177.2385 H   0  0  0  0  0  0  0  0  0  0  0  0
  1  2  2  0
  2  3  1  0
  3  4  1  0
  3  5  2  0
  5  6  1  0
  6  7  2  0
  7  8  1  0
  8  9  2  0
  9 10  1  0
  9 11  1  0
 11 12  2  0
  5 13  1  0
 13 14  1  0
 14 15  2  0
 15 16  1  0
 15 17  1  0
 17 18  1  0
 17 19  2  0
 19 20  1  0
 20 21  1  0
 20 22  2  0
 22  2  1  0
 12  6  1  0
 22 14  1  0
  4 23  1  0
  7 24  1  0
  8 25  1  0
 10 26  1  0
 11 27  1  0
 12 28  1  0
 16 29  1  0
 18 30  1  0
 19 31  1  0
 21 32  1  0
M  END
>  <docking_score>  (2) 
-5.8929999999999998

$$$$

     RDKit          3D

 32 34  0  0  0  0  0  0  0  0999 V2000
  117.6620  155.0830  181.9956 O   0  0  0  0  0  0  0  0  0  0  0  0
  117.0821  155.8229  181.1847 C   0  0  0  0  0  0  0  0  0  0  0  0
  116.3749  156.9726  181.6706 C   0  0  0  0  0  0  0  0  0  0  0  0
  116.4115  157.1677  183.0105 O   0  0  0  0  0  0  0  0  0  0  0  0
  115.7402  157.7721  180.7698 C   0  0  0  0  0  0  0  0  0  0  0  0
  114.9878  158.9649  181.1351 C   0  0  0  0  0  0  0  0  0  0  0  0
  114.0703  159.0614  182.1308 C   0  0  0  0  0  0  0  0  0  0  0  0
  113.4602  160.2688  182.4796 C   0  0  0  0  0  0  0  0  0  0  0  0
  113.8055  161.3870  181.7839 C   0  0  0  0  0  0  0  0  0  0  0  0
  113.2123  162.5925  182.1143 O   0  0  0  0  0  0  0  0  0  0  0  0
  114.7265  161.3135  180.7735 C   0  0  0  0  0  0  0  0  0  0  0  0
  115.3348  160.1403  180.4194 C   0  0  0  0  0  0  0  0  0  0  0  0
  115.7842  157.4882  179.4496 O   0  0  0  0  0  0  0  0  0  0  0  0
  116.4118  156.4626  178.9620 C   0  0  0  0  0  0  0  0  0  0  0  0
  116.4057  156.2437  177.5802 C   0  0  0  0  0  0  0  0  0  0  0  0
  115.7396  157.1063  176.7251 O   0  0  0  0  0  0  0  0  0  0  0  0
  117.0839  155.1435  177.1068 C   0  0  0  0  0  0  0  0  0  0  0  0
  117.0662  154.9433  175.7312 O   0  0  0  0  0  0  0  0  0  0  0  0
  117.7529  154.2731  177.9402 C   0  0  0  0  0  0  0  0  0  0  0  0
  117.7275  154.5344  179.2913 C   0  0  0  0  0  0  0  0  0  0  0  0
  118.3859  153.6871  180.1689 O   0  0  0  0  0  0  0  0  0  0  0  0
  117.0650  155.6234  179.8399 C   0  0  0  0  0  0  0  0  0  0  0  0
  116.0286  157.7229  183.6618 H   0  0  0  0  0  0  0  0  0  0  0  0
  113.7310  158.1678  182.6562 H   0  0  0  0  0  0  0  0  0  0  0  0
  112.7357  160.2594  183.2928 H   0  0  0  0  0  0  0  0  0  0  0  0
  112.6092  162.7002  182.9118 H   0  0  0  0  0  0  0  0  0  0  0  0
  114.9778  162.2154  180.2413 H   0  0  0  0  0  0  0  0  0  0  0  0
  116.0600  160.0963  179.6198 H   0  0  0  0  0  0  0  0  0  0  0  0
  116.0330  157.1176  175.7577 H   0  0  0  0  0  0  0  0  0  0  0  0
  117.2896  155.6274  175.0469 H   0  0  0  0  0  0  0  0  0  0  0  0
  118.2666  153.4276  177.5090 H   0  0  0  0  0  0  0  0  0  0  0  0
  119.2448  153.2234  179.8897 H   0  0  0  0  0  0  0  0  0  0  0  0
  1  2  2  0
  2  3  1  0
  3  4  1  0
  3  5  2  0
  5  6  1  0
  6  7  2  0
  7  8  1  0
  8  9  2  0
  9 10  1  0
  9 11  1  0
 11 12  2  0
  5 13  1  0
 13 14  1  0
 14 15  2  0
 15 16  1  0
 15 17  1  0
 17 18  1  0
 17 19  2  0
 19 20  1  0
 20 21  1  0
 20 22  2  0
 22  2  1  0
 12  6  1  0
 22 14  1  0
  4 23  1  0
  7 24  1  0
  8 25  1  0
 10 26  1  0
 11 27  1  0
 12 28  1  0
 16 29  1  0
 18 30  1  0
 19 31  1  0
 21 32  1  0
M  END
>  <docking_score>  (3) 
-5.5629999999999997

$$$$
