
     RDKit          3D

 47 46  0  0  0  0  0  0  0  0999 V2000
  116.4017  157.2468  182.7290 C   0  0  0  0  0  0  0  0  0  0  0  0
  116.5239  156.0076  181.8701 C   0  0  0  0  0  0  0  0  0  0  0  0
  117.9421  155.8940  181.3800 C   0  0  0  0  0  0  0  0  0  0  0  0
  118.0675  154.6832  180.4960 C   0  0  0  0  0  0  0  0  0  0  0  0
  118.7030  155.0004  179.1668 C   0  0  0  0  0  0  0  0  0  0  0  0
  117.7668  154.6903  178.0298 C   0  0  0  0  0  0  0  0  0  0  0  0
  116.6259  155.6439  177.9999 C   0  0  0  0  0  0  0  0  0  0  0  0
  116.1243  155.9117  176.5717 C   0  0  0  0  0  0  0  0  0  0  0  0
  116.6635  154.7639  175.7538 C   0  0  0  0  0  0  0  0  0  0  0  0
  115.5696  153.8360  175.3548 C   0  0  0  0  0  0  0  0  0  0  0  0
  114.2334  154.4380  175.6860 C   0  0  0  0  0  0  0  0  0  0  0  0
  113.3114  153.4628  176.3577 C   0  0  0  0  0  0  0  0  0  0  0  0
  114.0639  152.6021  177.3310 C   0  0  0  0  0  0  0  0  0  0  0  0
  114.0100  153.2786  178.6761 C   0  0  0  0  0  0  0  0  0  0  0  0
  113.1495  154.1597  178.9265 O   0  0  0  0  0  0  0  0  0  0  0  0
  114.8985  152.9629  179.6888 O   0  0  0  0  0  0  0  0  0  0  0  0
  114.5358  153.0951  181.0562 C   0  0  0  0  0  0  0  0  0  0  0  0
  116.4686  158.1311  182.0534 H   0  0  0  0  0  0  0  0  0  0  0  0
  117.2420  157.2306  183.4495 H   0  0  0  0  0  0  0  0  0  0  0  0
  115.4276  157.3075  183.2381 H   0  0  0  0  0  0  0  0  0  0  0  0
  116.3035  155.0860  182.4642 H   0  0  0  0  0  0  0  0  0  0  0  0
  115.8111  156.0601  181.0305 H   0  0  0  0  0  0  0  0  0  0  0  0
  118.2005  156.7721  180.7506 H   0  0  0  0  0  0  0  0  0  0  0  0
  118.6666  155.7603  182.2166 H   0  0  0  0  0  0  0  0  0  0  0  0
  118.7052  153.9521  181.0719 H   0  0  0  0  0  0  0  0  0  0  0  0
  117.0599  154.2248  180.2984 H   0  0  0  0  0  0  0  0  0  0  0  0
  119.0128  156.0625  179.1006 H   0  0  0  0  0  0  0  0  0  0  0  0
  119.6415  154.3780  179.0230 H   0  0  0  0  0  0  0  0  0  0  0  0
  117.4767  153.6380  178.0799 H   0  0  0  0  0  0  0  0  0  0  0  0
  118.3729  154.7901  177.0807 H   0  0  0  0  0  0  0  0  0  0  0  0
  116.7822  156.6174  178.4612 H   0  0  0  0  0  0  0  0  0  0  0  0
  115.7607  155.1053  178.5005 H   0  0  0  0  0  0  0  0  0  0  0  0
  115.0011  155.8077  176.6346 H   0  0  0  0  0  0  0  0  0  0  0  0
  116.4438  156.8899  176.2106 H   0  0  0  0  0  0  0  0  0  0  0  0
  117.4375  154.2054  176.3514 H   0  0  0  0  0  0  0  0  0  0  0  0
  117.2378  155.1323  174.8620 H   0  0  0  0  0  0  0  0  0  0  0  0
  115.6831  152.8233  175.8053 H   0  0  0  0  0  0  0  0  0  0  0  0
  115.6373  153.6516  174.2395 H   0  0  0  0  0  0  0  0  0  0  0  0
  114.3997  155.3424  176.2977 H   0  0  0  0  0  0  0  0  0  0  0  0
  113.7320  154.8078  174.7411 H   0  0  0  0  0  0  0  0  0  0  0  0
  112.7560  152.8752  175.6082 H   0  0  0  0  0  0  0  0  0  0  0  0
  112.5310  154.0692  176.9052 H   0  0  0  0  0  0  0  0  0  0  0  0
  113.6585  151.5888  177.3513 H   0  0  0  0  0  0  0  0  0  0  0  0
  115.1411  152.5240  177.0047 H   0  0  0  0  0  0  0  0  0  0  0  0
  114.2812  154.1507  181.3177 H   0  0  0  0  0  0  0  0  0  0  0  0
  113.7034  152.3919  181.2669 H   0  0  0  0  0  0  0  0  0  0  0  0
  115.3840  152.8219  181.7286 H   0  0  0  0  0  0  0  0  0  0  0  0
  1  2  1  0
  2  3  1  0
  3  4  1  0
  4  5  1  0
  5  6  1  0
  6  7  1  0
  7  8  1  0
  8  9  1  0
  9 10  1  0
 10 11  1  0
 11 12  1  0
 12 13  1  0
 13 14  1  0
 14 15  2  0
 14 16  1  0
 16 17  1  0
  1 18  1  0
  1 19  1  0
  1 20  1  0
  2 21  1  0
  2 22  1  0
  3 23  1  0
  3 24  1  0
  4 25  1  0
  4 26  1  0
  5 27  1  0
  5 28  1  0
  6 29  1  0
  6 30  1  0
  7 31  1  0
  7 32  1  0
  8 33  1  0
  8 34  1  0
  9 35  1  0
  9 36  1  0
 10 37  1  0
 10 38  1  0
 11 39  1  0
 11 40  1  0
 12 41  1  0
 12 42  1  0
 13 43  1  0
 13 44  1  0
 17 45  1  0
 17 46  1  0
 17 47  1  0
M  END
>  <docking_score>  (1) 
-3.234

$$$$

     RDKit          3D

 47 46  0  0  0  0  0  0  0  0999 V2000
  114.6052  157.0022  173.8380 C   0  0  0  0  0  0  0  0  0  0  0  0
  113.4763  156.0445  173.5269 C   0  0  0  0  0  0  0  0  0  0  0  0
  114.0492  154.6680  173.3229 C   0  0  0  0  0  0  0  0  0  0  0  0
  114.4934  154.1125  174.6486 C   0  0  0  0  0  0  0  0  0  0  0  0
  113.3368  153.6703  175.5076 C   0  0  0  0  0  0  0  0  0  0  0  0
  113.8160  152.8985  176.7077 C   0  0  0  0  0  0  0  0  0  0  0  0
  113.7906  153.7421  177.9323 C   0  0  0  0  0  0  0  0  0  0  0  0
  114.4653  153.0549  179.1304 C   0  0  0  0  0  0  0  0  0  0  0  0
  113.9193  153.7709  180.3413 C   0  0  0  0  0  0  0  0  0  0  0  0
  114.9294  153.8118  181.4344 C   0  0  0  0  0  0  0  0  0  0  0  0
  116.2816  154.1564  180.8773 C   0  0  0  0  0  0  0  0  0  0  0  0
  116.7147  155.5486  181.2326 C   0  0  0  0  0  0  0  0  0  0  0  0
  115.5871  156.3121  181.8649 C   0  0  0  0  0  0  0  0  0  0  0  0
  115.3204  157.5244  181.0110 C   0  0  0  0  0  0  0  0  0  0  0  0
  115.8534  157.6529  179.8801 O   0  0  0  0  0  0  0  0  0  0  0  0
  114.4831  158.5432  181.4300 O   0  0  0  0  0  0  0  0  0  0  0  0
  114.3525  158.8719  182.8062 C   0  0  0  0  0  0  0  0  0  0  0  0
  114.8231  157.5771  172.9080 H   0  0  0  0  0  0  0  0  0  0  0  0
  115.4773  156.3929  174.1441 H   0  0  0  0  0  0  0  0  0  0  0  0
  114.3286  157.7369  174.6096 H   0  0  0  0  0  0  0  0  0  0  0  0
  112.7583  155.9814  174.3821 H   0  0  0  0  0  0  0  0  0  0  0  0
  112.9267  156.3878  172.6348 H   0  0  0  0  0  0  0  0  0  0  0  0
  113.2652  153.9806  172.9398 H   0  0  0  0  0  0  0  0  0  0  0  0
  114.9455  154.6796  172.6603 H   0  0  0  0  0  0  0  0  0  0  0  0
  115.1579  153.2348  174.4021 H   0  0  0  0  0  0  0  0  0  0  0  0
  115.0827  154.8763  175.2263 H   0  0  0  0  0  0  0  0  0  0  0  0
  112.7256  154.5290  175.8505 H   0  0  0  0  0  0  0  0  0  0  0  0
  112.6443  152.9942  174.9143 H   0  0  0  0  0  0  0  0  0  0  0  0
  114.7886  152.4537  176.4840 H   0  0  0  0  0  0  0  0  0  0  0  0
  113.1074  152.0262  176.8302 H   0  0  0  0  0  0  0  0  0  0  0  0
  112.8165  154.0829  178.2786 H   0  0  0  0  0  0  0  0  0  0  0  0
  114.4619  154.6302  177.7088 H   0  0  0  0  0  0  0  0  0  0  0  0
  114.0590  152.0007  179.1266 H   0  0  0  0  0  0  0  0  0  0  0  0
  115.5526  153.0946  179.0561 H   0  0  0  0  0  0  0  0  0  0  0  0
  112.9894  153.2479  180.7016 H   0  0  0  0  0  0  0  0  0  0  0  0
  113.5549  154.7997  180.0776 H   0  0  0  0  0  0  0  0  0  0  0  0
  114.9602  152.8664  182.0231 H   0  0  0  0  0  0  0  0  0  0  0  0
  114.6179  154.5971  182.1886 H   0  0  0  0  0  0  0  0  0  0  0  0
  117.0049  153.3954  181.2202 H   0  0  0  0  0  0  0  0  0  0  0  0
  116.2686  154.0655  179.7492 H   0  0  0  0  0  0  0  0  0  0  0  0
  117.1360  156.0602  180.3515 H   0  0  0  0  0  0  0  0  0  0  0  0
  117.5704  155.4521  181.9639 H   0  0  0  0  0  0  0  0  0  0  0  0
  114.7061  155.6792  181.9866 H   0  0  0  0  0  0  0  0  0  0  0  0
  115.8981  156.6524  182.8947 H   0  0  0  0  0  0  0  0  0  0  0  0
  114.9820  158.2129  183.4517 H   0  0  0  0  0  0  0  0  0  0  0  0
  114.5937  159.9478  182.9333 H   0  0  0  0  0  0  0  0  0  0  0  0
  113.3055  158.7187  183.1618 H   0  0  0  0  0  0  0  0  0  0  0  0
  1  2  1  0
  2  3  1  0
  3  4  1  0
  4  5  1  0
  5  6  1  0
  6  7  1  0
  7  8  1  0
  8  9  1  0
  9 10  1  0
 10 11  1  0
 11 12  1  0
 12 13  1  0
 13 14  1  0
 14 15  2  0
 14 16  1  0
 16 17  1  0
  1 18  1  0
  1 19  1  0
  1 20  1  0
  2 21  1  0
  2 22  1  0
  3 23  1  0
  3 24  1  0
  4 25  1  0
  4 26  1  0
  5 27  1  0
  5 28  1  0
  6 29  1  0
  6 30  1  0
  7 31  1  0
  7 32  1  0
  8 33  1  0
  8 34  1  0
  9 35  1  0
  9 36  1  0
 10 37  1  0
 10 38  1  0
 11 39  1  0
 11 40  1  0
 12 41  1  0
 12 42  1  0
 13 43  1  0
 13 44  1  0
 17 45  1  0
 17 46  1  0
 17 47  1  0
M  END
>  <docking_score>  (2) 
-3.0529999999999999

$$$$

     RDKit          3D

 47 46  0  0  0  0  0  0  0  0999 V2000
  138.2476  151.0328  191.2689 C   0  0  0  0  0  0  0  0  0  0  0  0
  137.5221  149.7225  191.0565 C   0  0  0  0  0  0  0  0  0  0  0  0
  136.1583  149.8148  191.6857 C   0  0  0  0  0  0  0  0  0  0  0  0
  136.3066  149.9604  193.1757 C   0  0  0  0  0  0  0  0  0  0  0  0
  136.6178  148.6526  193.8569 C   0  0  0  0  0  0  0  0  0  0  0  0
  135.9545  148.5718  195.2056 C   0  0  0  0  0  0  0  0  0  0  0  0
  134.4939  148.8316  195.1008 C   0  0  0  0  0  0  0  0  0  0  0  0
  133.9868  149.7753  196.2031 C   0  0  0  0  0  0  0  0  0  0  0  0
  135.2301  150.4391  196.7423 C   0  0  0  0  0  0  0  0  0  0  0  0
  135.3018  151.8624  196.3114 C   0  0  0  0  0  0  0  0  0  0  0  0
  135.5167  152.7536  197.5018 C   0  0  0  0  0  0  0  0  0  0  0  0
  136.9690  153.0258  197.7644 C   0  0  0  0  0  0  0  0  0  0  0  0
  137.7813  152.8324  196.5166 C   0  0  0  0  0  0  0  0  0  0  0  0
  139.2073  153.1966  196.8384 C   0  0  0  0  0  0  0  0  0  0  0  0
  139.9766  152.3767  197.4001 O   0  0  0  0  0  0  0  0  0  0  0  0
  139.7305  154.4405  196.5325 O   0  0  0  0  0  0  0  0  0  0  0  0
  139.8776  154.8680  195.1855 C   0  0  0  0  0  0  0  0  0  0  0  0
  138.4045  151.4956  190.2669 H   0  0  0  0  0  0  0  0  0  0  0  0
  139.2137  150.7977  191.7556 H   0  0  0  0  0  0  0  0  0  0  0  0
  137.6548  151.7471  191.8607 H   0  0  0  0  0  0  0  0  0  0  0  0
  137.3716  149.5209  189.9667 H   0  0  0  0  0  0  0  0  0  0  0  0
  138.1085  148.8938  191.4868 H   0  0  0  0  0  0  0  0  0  0  0  0
  135.6343  150.7276  191.3303 H   0  0  0  0  0  0  0  0  0  0  0  0
  135.5509  148.8970  191.5092 H   0  0  0  0  0  0  0  0  0  0  0  0
  137.1517  150.6925  193.3260 H   0  0  0  0  0  0  0  0  0  0  0  0
  135.3672  150.3753  193.6336 H   0  0  0  0  0  0  0  0  0  0  0  0
  136.3015  147.7836  193.2459 H   0  0  0  0  0  0  0  0  0  0  0  0
  137.7374  148.5496  194.0142 H   0  0  0  0  0  0  0  0  0  0  0  0
  136.4820  149.2248  195.9051 H   0  0  0  0  0  0  0  0  0  0  0  0
  136.1293  147.5213  195.5850 H   0  0  0  0  0  0  0  0  0  0  0  0
  133.8352  147.9651  195.1073 H   0  0  0  0  0  0  0  0  0  0  0  0
  134.3544  149.4251  194.1428 H   0  0  0  0  0  0  0  0  0  0  0  0
  133.3745  150.5537  195.6595 H   0  0  0  0  0  0  0  0  0  0  0  0
  133.4180  149.2371  196.9622 H   0  0  0  0  0  0  0  0  0  0  0  0
  136.1411  149.8852  196.3799 H   0  0  0  0  0  0  0  0  0  0  0  0
  135.2929  150.3426  197.8593 H   0  0  0  0  0  0  0  0  0  0  0  0
  134.4088  152.1761  195.7236 H   0  0  0  0  0  0  0  0  0  0  0  0
  136.1646  151.9806  195.5876 H   0  0  0  0  0  0  0  0  0  0  0  0
  134.9398  153.6832  197.3508 H   0  0  0  0  0  0  0  0  0  0  0  0
  135.0720  152.2761  198.4265 H   0  0  0  0  0  0  0  0  0  0  0  0
  137.3311  152.4164  198.6088 H   0  0  0  0  0  0  0  0  0  0  0  0
  137.0469  154.0984  198.1106 H   0  0  0  0  0  0  0  0  0  0  0  0
  137.6807  151.8132  196.1387 H   0  0  0  0  0  0  0  0  0  0  0  0
  137.4003  153.5256  195.7121 H   0  0  0  0  0  0  0  0  0  0  0  0
  140.3835  155.8614  195.1183 H   0  0  0  0  0  0  0  0  0  0  0  0
  140.4172  154.0769  194.6244 H   0  0  0  0  0  0  0  0  0  0  0  0
  138.8850  155.0095  194.6946 H   0  0  0  0  0  0  0  0  0  0  0  0
  1  2  1  0
  2  3  1  0
  3  4  1  0
  4  5  1  0
  5  6  1  0
  6  7  1  0
  7  8  1  0
  8  9  1  0
  9 10  1  0
 10 11  1  0
 11 12  1  0
 12 13  1  0
 13 14  1  0
 14 15  2  0
 14 16  1  0
 16 17  1  0
  1 18  1  0
  1 19  1  0
  1 20  1  0
  2 21  1  0
  2 22  1  0
  3 23  1  0
  3 24  1  0
  4 25  1  0
  4 26  1  0
  5 27  1  0
  5 28  1  0
  6 29  1  0
  6 30  1  0
  7 31  1  0
  7 32  1  0
  8 33  1  0
  8 34  1  0
  9 35  1  0
  9 36  1  0
 10 37  1  0
 10 38  1  0
 11 39  1  0
 11 40  1  0
 12 41  1  0
 12 42  1  0
 13 43  1  0
 13 44  1  0
 17 45  1  0
 17 46  1  0
 17 47  1  0
M  END
>  <docking_score>  (3) 
-3.0449999999999999

$$$$
