
     RDKit          3D

113119  0  0  0  0  0  0  0  0999 V2000
  130.1921  144.3298  193.6413 O   0  0  0  0  0  0  0  0  0  0  0  0
  130.6443  144.7466  192.5268 C   0  0  0  0  0  0  0  0  0  0  0  0
  129.9161  144.5443  191.2859 C   0  0  0  0  0  0  0  0  0  0  0  0
  128.5826  144.9471  191.1806 C   0  0  0  0  0  0  0  0  0  0  0  0
  127.8494  144.7729  190.0191 C   0  0  0  0  0  0  0  0  0  0  0  0
  128.4442  144.1847  188.9247 C   0  0  0  0  0  0  0  0  0  0  0  0
  129.7565  143.7776  188.9973 C   0  0  0  0  0  0  0  0  0  0  0  0
  130.4752  143.9624  190.1750 C   0  0  0  0  0  0  0  0  0  0  0  0
  131.8976  145.4185  192.5717 N   0  0  0  0  0  0  0  0  0  0  0  0
  132.6490  145.6542  193.7877 C   0  0  1  0  0  0  0  0  0  0  0  0
  134.0176  145.1326  193.7670 C   0  0  0  0  0  0  0  0  0  0  0  0
  134.7227  144.9525  194.9235 C   0  0  0  0  0  0  0  0  0  0  0  0
  136.0146  144.4423  194.9219 C   0  0  0  0  0  0  0  0  0  0  0  0
  136.6208  144.1018  193.7364 C   0  0  0  0  0  0  0  0  0  0  0  0
  135.9191  144.2781  192.5499 C   0  0  0  0  0  0  0  0  0  0  0  0
  134.6149  144.7955  192.5750 C   0  0  0  0  0  0  0  0  0  0  0  0
  132.5588  147.1167  194.1981 C   0  0  2  0  0  0  0  0  0  0  0  0
  133.6239  147.9468  193.6169 C   0  0  0  0  0  0  0  0  0  0  0  0
  134.4118  148.7353  194.3709 O   0  0  0  0  0  0  0  0  0  0  0  0
  135.7299  148.8527  194.5896 C   0  0  2  0  0  0  0  0  0  0  0  0
  136.2267  148.7505  196.0029 C   0  0  0  0  0  0  0  0  0  0  0  0
  135.8004  147.6705  196.8795 C   0  0  0  0  0  0  0  0  0  0  0  0
  137.0800  149.5834  196.5242 C   0  0  0  0  0  0  0  0  0  0  0  0
  138.0179  149.0822  197.4594 C   0  0  1  0  0  0  0  0  0  0  0  0
  138.1048  147.7750  197.8128 O   0  0  0  0  0  0  0  0  0  0  0  0
  138.8830  146.8685  197.1023 C   0  0  0  0  0  0  0  0  0  0  0  0
  140.0297  146.1467  197.6441 C   0  0  0  0  0  0  0  0  0  0  0  0
  138.5519  146.6713  195.8954 O   0  0  0  0  0  0  0  0  0  0  0  0
  139.4641  149.3837  196.9478 C   0  0  0  0  0  0  0  0  0  0  0  0
  140.3122  149.7683  195.8259 C   0  0  1  0  0  0  0  0  0  0  0  0
  140.7721  148.4072  195.2774 C   0  0  0  0  0  0  0  0  0  0  0  0
  140.0325  150.8075  194.8488 C   0  0  1  0  0  0  0  0  0  0  0  0
  141.1585  150.9274  193.8153 C   0  0  1  0  0  0  0  0  0  0  0  0
  142.2794  150.0642  193.6862 C   0  0  0  0  0  0  0  0  0  0  0  0
  143.1227  151.2160  193.6155 O   0  0  0  0  0  0  0  0  0  0  0  0
  140.7578  151.6611  192.7412 O   0  0  0  0  0  0  0  0  0  0  0  0
  140.8380  151.3811  191.4302 C   0  0  0  0  0  0  0  0  0  0  0  0
  139.8515  150.5082  190.6838 C   0  0  0  0  0  0  0  0  0  0  0  0
  141.7577  151.8501  190.7737 O   0  0  0  0  0  0  0  0  0  0  0  0
  142.2545  151.7266  194.5630 C   0  0  2  0  0  0  0  0  0  0  0  0
  142.4576  151.2387  195.9537 C   0  0  0  0  0  0  0  0  0  0  0  0
  141.5692  150.3146  196.5785 C   0  0  2  0  0  0  0  0  0  0  0  0
  142.2461  149.2136  197.1075 O   0  0  0  0  0  0  0  0  0  0  0  0
  138.7951  151.0702  194.1022 C   0  0  2  0  0  0  0  0  0  0  0  0
  138.5013  152.4803  194.0085 O   0  0  0  0  0  0  0  0  0  0  0  0
  139.4019  153.4357  193.6891 C   0  0  0  0  0  0  0  0  0  0  0  0
  139.8809  154.3645  194.6891 C   0  0  0  0  0  0  0  0  0  0  0  0
  139.3827  154.2846  195.9922 C   0  0  0  0  0  0  0  0  0  0  0  0
  139.8280  155.1558  196.9762 C   0  0  0  0  0  0  0  0  0  0  0  0
  140.7676  156.1290  196.7282 C   0  0  0  0  0  0  0  0  0  0  0  0
  141.2696  156.2177  195.4344 C   0  0  0  0  0  0  0  0  0  0  0  0
  140.8164  155.3496  194.4844 C   0  0  0  0  0  0  0  0  0  0  0  0
  139.8240  153.5246  192.5355 O   0  0  0  0  0  0  0  0  0  0  0  0
  140.1035  149.2018  197.9541 O   0  0  0  0  0  0  0  0  0  0  0  0
  137.0450  150.9635  195.9040 C   0  0  0  0  0  0  0  0  0  0  0  0
  135.6623  151.5513  195.8100 C   0  0  0  0  0  0  0  0  0  0  0  0
  137.8089  151.9601  196.6785 C   0  0  0  0  0  0  0  0  0  0  0  0
  137.5631  150.4502  194.5980 C   0  0  2  0  0  0  0  0  0  0  0  0
  138.1449  149.1202  194.6433 O   0  0  0  0  0  0  0  0  0  0  0  0
  136.3990  150.0327  193.8280 C   0  0  0  0  0  0  0  0  0  0  0  0
  133.8324  147.9489  192.3986 O   0  0  0  0  0  0  0  0  0  0  0  0
  132.6910  147.0956  195.6194 O   0  0  0  0  0  0  0  0  0  0  0  0
  128.0825  145.4099  192.0163 H   0  0  0  0  0  0  0  0  0  0  0  0
  126.8133  145.0782  189.9188 H   0  0  0  0  0  0  0  0  0  0  0  0
  127.8570  144.0545  188.0211 H   0  0  0  0  0  0  0  0  0  0  0  0
  130.2336  143.3202  188.1554 H   0  0  0  0  0  0  0  0  0  0  0  0
  131.5044  143.6386  190.2137 H   0  0  0  0  0  0  0  0  0  0  0  0
  132.3081  145.7705  191.6661 H   0  0  0  0  0  0  0  0  0  0  0  0
  132.0972  145.0562  194.5760 H   0  0  0  0  0  0  0  0  0  0  0  0
  134.3166  145.1959  195.8914 H   0  0  0  0  0  0  0  0  0  0  0  0
  136.5659  144.3044  195.8382 H   0  0  0  0  0  0  0  0  0  0  0  0
  137.6234  143.7027  193.6959 H   0  0  0  0  0  0  0  0  0  0  0  0
  136.4154  144.0022  191.6334 H   0  0  0  0  0  0  0  0  0  0  0  0
  134.1458  144.9044  191.6070 H   0  0  0  0  0  0  0  0  0  0  0  0
  131.5453  147.5113  194.0121 H   0  0  0  0  0  0  0  0  0  0  0  0
  136.1869  147.9537  194.1120 H   0  0  0  0  0  0  0  0  0  0  0  0
  136.5393  147.3295  197.6242 H   0  0  0  0  0  0  0  0  0  0  0  0
  135.0188  148.1204  197.5389 H   0  0  0  0  0  0  0  0  0  0  0  0
  135.2438  146.8523  196.3818 H   0  0  0  0  0  0  0  0  0  0  0  0
  137.9433  149.7260  198.3862 H   0  0  0  0  0  0  0  0  0  0  0  0
  140.6906  145.7058  196.8925 H   0  0  0  0  0  0  0  0  0  0  0  0
  140.6320  146.8158  198.2819 H   0  0  0  0  0  0  0  0  0  0  0  0
  139.6716  145.3337  198.3399 H   0  0  0  0  0  0  0  0  0  0  0  0
  141.9069  148.2807  195.3762 H   0  0  0  0  0  0  0  0  0  0  0  0
  140.4009  147.5565  195.8307 H   0  0  0  0  0  0  0  0  0  0  0  0
  140.7339  148.3550  194.1682 H   0  0  0  0  0  0  0  0  0  0  0  0
  140.1832  151.7898  195.4220 H   0  0  0  0  0  0  0  0  0  0  0  0
  142.7917  149.5163  194.4625 H   0  0  0  0  0  0  0  0  0  0  0  0
  142.3880  149.4332  192.7432 H   0  0  0  0  0  0  0  0  0  0  0  0
  139.0429  151.1377  190.2920 H   0  0  0  0  0  0  0  0  0  0  0  0
  139.4772  149.7056  191.3489 H   0  0  0  0  0  0  0  0  0  0  0  0
  140.3358  150.0204  189.8152 H   0  0  0  0  0  0  0  0  0  0  0  0
  142.1803  152.8233  194.4143 H   0  0  0  0  0  0  0  0  0  0  0  0
  143.5355  150.8607  196.0166 H   0  0  0  0  0  0  0  0  0  0  0  0
  142.5634  152.1895  196.5701 H   0  0  0  0  0  0  0  0  0  0  0  0
  141.1542  150.8119  197.5272 H   0  0  0  0  0  0  0  0  0  0  0  0
  143.0629  149.5098  197.5770 H   0  0  0  0  0  0  0  0  0  0  0  0
  138.8574  150.7312  193.0312 H   0  0  0  0  0  0  0  0  0  0  0  0
  138.6409  153.5554  196.2900 H   0  0  0  0  0  0  0  0  0  0  0  0
  139.4325  155.0893  197.9895 H   0  0  0  0  0  0  0  0  0  0  0  0
  141.1205  156.8134  197.4924 H   0  0  0  0  0  0  0  0  0  0  0  0
  142.0099  156.9596  195.1725 H   0  0  0  0  0  0  0  0  0  0  0  0
  141.2011  155.4128  193.4653 H   0  0  0  0  0  0  0  0  0  0  0  0
  134.9881  150.9660  196.4736 H   0  0  0  0  0  0  0  0  0  0  0  0
  135.2135  151.3361  194.7813 H   0  0  0  0  0  0  0  0  0  0  0  0
  135.5813  152.6270  195.8698 H   0  0  0  0  0  0  0  0  0  0  0  0
  137.9052  152.9762  196.3254 H   0  0  0  0  0  0  0  0  0  0  0  0
  137.6656  151.8255  197.7475 H   0  0  0  0  0  0  0  0  0  0  0  0
  138.9106  151.6327  196.5601 H   0  0  0  0  0  0  0  0  0  0  0  0
  137.9376  148.7063  193.7957 H   0  0  0  0  0  0  0  0  0  0  0  0
  135.6328  150.7796  193.5651 H   0  0  0  0  0  0  0  0  0  0  0  0
  136.7551  149.6577  192.8158 H   0  0  0  0  0  0  0  0  0  0  0  0
  132.6447  146.1498  195.9081 H   0  0  0  0  0  0  0  0  0  0  0  0
  1  2  2  0
  2  3  1  0
  3  4  2  0
  4  5  1  0
  5  6  2  0
  6  7  1  0
  7  8  2  0
  2  9  1  0
  9 10  1  0
 10 11  1  0
 11 12  2  0
 12 13  1  0
 13 14  2  0
 14 15  1  0
 15 16  2  0
 10 17  1  0
 17 18  1  0
 18 19  1  0
 19 20  1  0
 20 21  1  0
 21 22  1  0
 21 23  2  0
 23 24  1  0
 24 25  1  0
 25 26  1  0
 26 27  1  0
 26 28  2  0
 24 29  1  0
 29 30  1  0
 30 31  1  6
 30 32  1  0
 32 33  1  0
 33 34  1  0
 34 35  1  0
 33 36  1  6
 36 37  1  0
 37 38  1  0
 37 39  2  0
 33 40  1  0
 40 41  1  0
 41 42  1  0
 42 43  1  0
 32 44  1  0
 44 45  1  0
 45 46  1  0
 46 47  1  0
 47 48  2  0
 48 49  1  0
 49 50  2  0
 50 51  1  0
 51 52  2  0
 46 53  2  0
 29 54  2  0
 23 55  1  0
 55 56  1  0
 55 57  1  0
 55 58  1  0
 58 59  1  1
 58 60  1  0
 18 61  2  0
 17 62  1  0
  8  3  1  0
 16 11  1  0
 60 20  1  0
 42 30  1  0
 40 35  1  0
 58 44  1  0
 52 47  1  0
  4 63  1  0
  5 64  1  0
  6 65  1  0
  7 66  1  0
  8 67  1  0
  9 68  1  0
 10 69  1  1
 12 70  1  0
 13 71  1  0
 14 72  1  0
 15 73  1  0
 16 74  1  0
 17 75  1  1
 20 76  1  6
 22 77  1  0
 22 78  1  0
 22 79  1  0
 24 80  1  1
 27 81  1  0
 27 82  1  0
 27 83  1  0
 31 84  1  0
 31 85  1  0
 31 86  1  0
 32 87  1  1
 34 88  1  0
 34 89  1  0
 38 90  1  0
 38 91  1  0
 38 92  1  0
 40 93  1  1
 41 94  1  0
 41 95  1  0
 42 96  1  1
 43 97  1  0
 44 98  1  6
 48 99  1  0
 49100  1  0
 50101  1  0
 51102  1  0
 52103  1  0
 56104  1  0
 56105  1  0
 56106  1  0
 57107  1  0
 57108  1  0
 57109  1  0
 59110  1  0
 60111  1  0
 60112  1  0
 62113  1  0
M  END
>  <docking_score>  (1) 
-1.079

$$$$
