
     RDKit          3D

116122  0  0  0  0  0  0  0  0999 V2000
  135.8487  148.4474  192.6219 C   0  0  0  0  0  0  0  0  0  0  0  0
  135.7856  148.3401  194.1253 C   0  0  2  0  0  0  0  0  0  0  0  0
  136.1891  146.9913  194.6626 C   0  0  2  0  0  0  0  0  0  0  0  0
  137.6653  146.8580  194.5032 C   0  0  0  0  0  0  0  0  0  0  0  0
  138.2845  147.7588  195.5486 C   0  0  0  0  0  0  0  0  0  0  0  0
  134.2749  148.4035  194.4373 C   0  0  0  0  0  0  0  0  0  0  0  0
  133.5197  147.4234  193.6147 C   0  0  0  0  0  0  0  0  0  0  0  0
  134.0648  146.0573  193.6432 C   0  0  0  0  0  0  0  0  0  0  0  0
  135.4230  145.8268  194.1943 C   0  0  2  0  0  0  0  0  0  0  0  0
  135.2101  144.9361  195.4530 C   0  0  0  0  0  0  0  0  0  0  0  0
  136.2276  144.9122  193.3068 C   0  0  0  0  0  0  0  0  0  0  0  0
  136.6916  145.3907  192.1036 O   0  0  0  0  0  0  0  0  0  0  0  0
  138.0242  145.3346  191.6541 C   0  0  1  0  0  0  0  0  0  0  0  0
  138.3507  146.7390  191.1477 C   0  0  1  0  0  0  0  0  0  0  0  0
  139.7621  146.8747  190.6613 C   0  0  1  0  0  0  0  0  0  0  0  0
  140.0100  148.2567  190.5295 O   0  0  0  0  0  0  0  0  0  0  0  0
  140.6712  146.3918  191.7720 C   0  0  2  0  0  0  0  0  0  0  0  0
  141.9591  146.3170  191.2970 O   0  0  0  0  0  0  0  0  0  0  0  0
  137.4240  147.1581  190.2016 O   0  0  0  0  0  0  0  0  0  0  0  0
  138.9180  144.9992  192.6469 O   0  0  0  0  0  0  0  0  0  0  0  0
  140.1976  144.9821  192.1499 C   0  0  2  0  0  0  0  0  0  0  0  0
  141.2345  144.4244  193.0836 C   0  0  0  0  0  0  0  0  0  0  0  0
  142.2312  143.7269  192.3997 O   0  0  0  0  0  0  0  0  0  0  0  0
  136.4989  143.7274  193.6069 O   0  0  0  0  0  0  0  0  0  0  0  0
  136.5265  149.4444  194.7971 C   0  0  1  0  0  0  0  0  0  0  0  0
  137.6314  149.0585  195.7114 C   0  0  1  0  0  0  0  0  0  0  0  0
  137.1752  149.3296  197.1645 C   0  0  0  0  0  0  0  0  0  0  0  0
  136.8399  150.8148  196.9082 C   0  0  0  0  0  0  0  0  0  0  0  0
  135.7561  151.3722  197.4061 C   0  0  0  0  0  0  0  0  0  0  0  0
  138.7493  150.1123  195.7332 C   0  0  0  0  0  0  0  0  0  0  0  0
  137.9079  151.3604  196.0595 C   0  0  2  0  0  0  0  0  0  0  0  0
  138.6535  152.3135  196.6403 O   0  0  0  0  0  0  0  0  0  0  0  0
  139.8375  152.0898  197.2182 C   0  0  2  0  0  0  0  0  0  0  0  0
  139.5557  151.2953  198.3860 O   0  0  0  0  0  0  0  0  0  0  0  0
  140.7028  150.7446  198.9024 C   0  0  2  0  0  0  0  0  0  0  0  0
  140.2864  150.0295  200.1927 C   0  0  0  0  0  0  0  0  0  0  0  0
  139.6927  148.7996  199.8957 O   0  0  0  0  0  0  0  0  0  0  0  0
  141.7289  151.7807  199.2993 C   0  0  1  0  0  0  0  0  0  0  0  0
  142.9280  151.1118  199.5391 O   0  0  0  0  0  0  0  0  0  0  0  0
  141.9189  152.8255  198.2237 C   0  0  2  0  0  0  0  0  0  0  0  0
  142.7458  153.8233  198.6598 O   0  0  0  0  0  0  0  0  0  0  0  0
  140.5171  153.3240  197.8290 C   0  0  1  0  0  0  0  0  0  0  0  0
  140.5738  154.3551  196.9329 O   0  0  0  0  0  0  0  0  0  0  0  0
  140.0363  154.0317  195.6628 C   0  0  1  0  0  0  0  0  0  0  0  0
  140.1593  155.2697  194.8403 C   0  0  1  0  0  0  0  0  0  0  0  0
  140.4662  155.0885  193.3979 C   0  0  1  0  0  0  0  0  0  0  0  0
  141.0960  156.2503  192.9101 O   0  0  0  0  0  0  0  0  0  0  0  0
  141.3179  153.8665  193.1819 C   0  0  2  0  0  0  0  0  0  0  0  0
  141.5947  153.6261  191.8475 O   0  0  0  0  0  0  0  0  0  0  0  0
  138.9089  155.9366  194.8877 O   0  0  0  0  0  0  0  0  0  0  0  0
  140.6975  152.9252  195.2058 O   0  0  0  0  0  0  0  0  0  0  0  0
  140.5401  152.7299  193.8421 C   0  0  2  0  0  0  0  0  0  0  0  0
  141.0103  151.3992  193.3781 C   0  0  0  0  0  0  0  0  0  0  0  0
  140.1733  150.8139  192.4350 O   0  0  0  0  0  0  0  0  0  0  0  0
  137.3735  151.7605  194.6819 C   0  0  0  0  0  0  0  0  0  0  0  0
  137.0755  150.4999  193.8543 C   0  0  0  0  0  0  0  0  0  0  0  0
  135.6682  147.4735  192.1227 H   0  0  0  0  0  0  0  0  0  0  0  0
  134.9293  149.0447  192.3295 H   0  0  0  0  0  0  0  0  0  0  0  0
  136.7795  148.8527  192.2365 H   0  0  0  0  0  0  0  0  0  0  0  0
  136.0102  147.0926  195.7818 H   0  0  0  0  0  0  0  0  0  0  0  0
  138.0708  145.8421  194.6722 H   0  0  0  0  0  0  0  0  0  0  0  0
  137.9886  147.2734  193.5150 H   0  0  0  0  0  0  0  0  0  0  0  0
  138.2128  147.1975  196.5248 H   0  0  0  0  0  0  0  0  0  0  0  0
  139.3848  147.7859  195.3246 H   0  0  0  0  0  0  0  0  0  0  0  0
  133.8993  149.4300  194.3441 H   0  0  0  0  0  0  0  0  0  0  0  0
  134.1912  148.0804  195.5107 H   0  0  0  0  0  0  0  0  0  0  0  0
  133.3138  147.8067  192.5742 H   0  0  0  0  0  0  0  0  0  0  0  0
  132.4745  147.4002  194.0603 H   0  0  0  0  0  0  0  0  0  0  0  0
  134.0356  145.6624  192.5840 H   0  0  0  0  0  0  0  0  0  0  0  0
  133.3075  145.3782  194.1543 H   0  0  0  0  0  0  0  0  0  0  0  0
  134.2568  145.1849  195.9251 H   0  0  0  0  0  0  0  0  0  0  0  0
  135.3367  143.8750  195.1644 H   0  0  0  0  0  0  0  0  0  0  0  0
  136.0448  145.1904  196.1495 H   0  0  0  0  0  0  0  0  0  0  0  0
  138.1803  144.6411  190.8165 H   0  0  0  0  0  0  0  0  0  0  0  0
  138.2592  147.4039  192.0555 H   0  0  0  0  0  0  0  0  0  0  0  0
  139.9715  146.3554  189.7259 H   0  0  0  0  0  0  0  0  0  0  0  0
  140.8584  148.5054  190.9344 H   0  0  0  0  0  0  0  0  0  0  0  0
  140.5824  147.0845  192.6295 H   0  0  0  0  0  0  0  0  0  0  0  0
  142.3811  145.4370  191.5468 H   0  0  0  0  0  0  0  0  0  0  0  0
  137.9059  147.4250  189.3848 H   0  0  0  0  0  0  0  0  0  0  0  0
  140.2873  144.3849  191.1942 H   0  0  0  0  0  0  0  0  0  0  0  0
  140.7559  143.8221  193.8829 H   0  0  0  0  0  0  0  0  0  0  0  0
  141.7125  145.2804  193.6049 H   0  0  0  0  0  0  0  0  0  0  0  0
  142.9930  144.3075  192.1959 H   0  0  0  0  0  0  0  0  0  0  0  0
  135.7507  150.0304  195.3790 H   0  0  0  0  0  0  0  0  0  0  0  0
  137.9962  149.2368  197.8714 H   0  0  0  0  0  0  0  0  0  0  0  0
  136.2461  148.8097  197.4052 H   0  0  0  0  0  0  0  0  0  0  0  0
  135.0525  150.7874  198.0284 H   0  0  0  0  0  0  0  0  0  0  0  0
  135.4893  152.3909  197.2355 H   0  0  0  0  0  0  0  0  0  0  0  0
  139.2984  150.1901  194.8039 H   0  0  0  0  0  0  0  0  0  0  0  0
  139.3859  149.8383  196.6085 H   0  0  0  0  0  0  0  0  0  0  0  0
  140.6309  151.5969  196.6439 H   0  0  0  0  0  0  0  0  0  0  0  0
  141.1077  149.9797  198.2361 H   0  0  0  0  0  0  0  0  0  0  0  0
  139.6483  150.6813  200.8256 H   0  0  0  0  0  0  0  0  0  0  0  0
  141.2044  149.8311  200.7914 H   0  0  0  0  0  0  0  0  0  0  0  0
  140.2852  148.3234  199.2360 H   0  0  0  0  0  0  0  0  0  0  0  0
  141.4317  152.3058  200.2240 H   0  0  0  0  0  0  0  0  0  0  0  0
  143.6946  151.7352  199.6054 H   0  0  0  0  0  0  0  0  0  0  0  0
  142.3847  152.3624  197.3261 H   0  0  0  0  0  0  0  0  0  0  0  0
  142.6590  154.0549  199.6229 H   0  0  0  0  0  0  0  0  0  0  0  0
  139.9690  153.5862  198.7420 H   0  0  0  0  0  0  0  0  0  0  0  0
  138.9524  153.8063  195.8791 H   0  0  0  0  0  0  0  0  0  0  0  0
  140.9314  155.9704  195.2505 H   0  0  0  0  0  0  0  0  0  0  0  0
  139.5358  154.9808  192.7695 H   0  0  0  0  0  0  0  0  0  0  0  0
  141.9649  156.3718  193.3333 H   0  0  0  0  0  0  0  0  0  0  0  0
  142.2401  154.0206  193.7985 H   0  0  0  0  0  0  0  0  0  0  0  0
  141.8571  154.4290  191.3498 H   0  0  0  0  0  0  0  0  0  0  0  0
  138.1709  155.2657  194.9791 H   0  0  0  0  0  0  0  0  0  0  0  0
  139.4743  152.8715  193.5443 H   0  0  0  0  0  0  0  0  0  0  0  0
  140.9792  150.7112  194.2753 H   0  0  0  0  0  0  0  0  0  0  0  0
  142.0675  151.4018  193.0724 H   0  0  0  0  0  0  0  0  0  0  0  0
  140.6645  150.1368  191.9384 H   0  0  0  0  0  0  0  0  0  0  0  0
  136.4823  152.3928  194.7424 H   0  0  0  0  0  0  0  0  0  0  0  0
  138.2370  152.2368  194.1634 H   0  0  0  0  0  0  0  0  0  0  0  0
  137.9601  150.1610  193.2827 H   0  0  0  0  0  0  0  0  0  0  0  0
  136.3219  150.8572  193.1133 H   0  0  0  0  0  0  0  0  0  0  0  0
  2  1  1  6
  2  3  1  0
  3  4  1  0
  4  5  1  0
  2  6  1  0
  6  7  1  0
  7  8  1  0
  8  9  1  0
  9 10  1  1
  9 11  1  0
 11 12  1  0
 12 13  1  0
 13 14  1  0
 14 15  1  0
 15 16  1  0
 15 17  1  0
 17 18  1  0
 14 19  1  0
 13 20  1  0
 20 21  1  0
 21 22  1  0
 22 23  1  0
 11 24  2  0
  2 25  1  0
 25 26  1  0
 26 27  1  1
 27 28  1  0
 28 29  2  3
 26 30  1  0
 30 31  1  0
 31 32  1  1
 32 33  1  0
 33 34  1  0
 34 35  1  0
 35 36  1  0
 36 37  1  0
 35 38  1  0
 38 39  1  0
 38 40  1  0
 40 41  1  0
 33 42  1  0
 42 43  1  0
 43 44  1  0
 44 45  1  0
 45 46  1  0
 46 47  1  0
 46 48  1  0
 48 49  1  0
 45 50  1  0
 44 51  1  0
 51 52  1  0
 52 53  1  0
 53 54  1  0
 31 55  1  0
 55 56  1  0
  9  3  1  0
 26  5  1  0
 21 17  1  0
 56 25  1  0
 31 28  1  0
 42 40  1  0
 52 48  1  0
  1 57  1  0
  1 58  1  0
  1 59  1  0
  3 60  1  1
  4 61  1  0
  4 62  1  0
  5 63  1  0
  5 64  1  0
  6 65  1  0
  6 66  1  0
  7 67  1  0
  7 68  1  0
  8 69  1  0
  8 70  1  0
 10 71  1  0
 10 72  1  0
 10 73  1  0
 13 74  1  6
 14 75  1  1
 15 76  1  6
 16 77  1  0
 17 78  1  1
 18 79  1  0
 19 80  1  0
 21 81  1  6
 22 82  1  0
 22 83  1  0
 23 84  1  0
 25 85  1  1
 27 86  1  0
 27 87  1  0
 29 88  1  0
 29 89  1  0
 30 90  1  0
 30 91  1  0
 33 92  1  6
 35 93  1  6
 36 94  1  0
 36 95  1  0
 37 96  1  0
 38 97  1  1
 39 98  1  0
 40 99  1  6
 41100  1  0
 42101  1  1
 44102  1  1
 45103  1  1
 46104  1  6
 47105  1  0
 48106  1  1
 49107  1  0
 50108  1  0
 52109  1  1
 53110  1  0
 53111  1  0
 54112  1  0
 55113  1  0
 55114  1  0
 56115  1  0
 56116  1  0
M  END
>  <docking_score>  (1) 
-2.8450000000000002

$$$$
