
     RDKit          3D

 34 36  0  0  0  0  0  0  0  0999 V2000
  116.4421  157.1104  177.9294 O   0  0  0  0  0  0  0  0  0  0  0  0
  116.5541  156.6627  179.0989 C   0  0  0  0  0  0  0  0  0  0  0  0
  117.3302  155.5036  179.2392 C   0  0  0  0  0  0  0  0  0  0  0  0
  117.9662  154.8604  178.0975 C   0  0  0  0  0  0  0  0  0  0  0  0
  119.3026  154.5200  178.0613 C   0  0  0  0  0  0  0  0  0  0  0  0
  119.9134  153.9151  176.9951 C   0  0  0  0  0  0  0  0  0  0  0  0
  119.1272  153.6310  175.8847 C   0  0  0  0  0  0  0  0  0  0  0  0
  119.6956  153.0186  174.7765 O   0  0  0  0  0  0  0  0  0  0  0  0
  117.7940  153.9532  175.8800 C   0  0  0  0  0  0  0  0  0  0  0  0
  117.2152  154.5625  176.9749 C   0  0  0  0  0  0  0  0  0  0  0  0
  117.4523  155.0147  180.5190 C   0  0  0  0  0  0  0  0  0  0  0  0
  116.8836  155.5868  181.5530 O   0  0  0  0  0  0  0  0  0  0  0  0
  116.1558  156.6678  181.4451 C   0  0  0  0  0  0  0  0  0  0  0  0
  115.5973  157.1952  182.6016 C   0  0  0  0  0  0  0  0  0  0  0  0
  114.8402  158.3263  182.4626 C   0  0  0  0  0  0  0  0  0  0  0  0
  114.2691  158.8698  183.6282 O   0  0  0  0  0  0  0  0  0  0  0  0
  114.6543  158.8950  181.2358 C   0  0  0  0  0  0  0  0  0  0  0  0
  113.8822  160.0377  181.1381 O   0  0  0  0  0  0  0  0  0  0  0  0
  114.3835  161.3417  181.2077 C   0  0  0  0  0  0  0  0  0  0  0  0
  115.2022  158.3899  180.0505 C   0  0  0  0  0  0  0  0  0  0  0  0
  114.9549  159.0340  178.8794 O   0  0  0  0  0  0  0  0  0  0  0  0
  115.9626  157.2527  180.1947 C   0  0  0  0  0  0  0  0  0  0  0  0
  119.8751  154.7685  178.9671 H   0  0  0  0  0  0  0  0  0  0  0  0
  120.9730  153.6643  177.0109 H   0  0  0  0  0  0  0  0  0  0  0  0
  120.4510  152.3598  174.8571 H   0  0  0  0  0  0  0  0  0  0  0  0
  117.1988  153.7242  175.0071 H   0  0  0  0  0  0  0  0  0  0  0  0
  116.1573  154.7977  176.9236 H   0  0  0  0  0  0  0  0  0  0  0  0
  118.0409  154.1221  180.6807 H   0  0  0  0  0  0  0  0  0  0  0  0
  115.7376  156.7538  183.5777 H   0  0  0  0  0  0  0  0  0  0  0  0
  113.6175  158.3610  184.1894 H   0  0  0  0  0  0  0  0  0  0  0  0
  114.3519  161.7755  182.2164 H   0  0  0  0  0  0  0  0  0  0  0  0
  113.8500  162.0478  180.5207 H   0  0  0  0  0  0  0  0  0  0  0  0
  115.4377  161.3112  180.8432 H   0  0  0  0  0  0  0  0  0  0  0  0
  114.4166  158.7687  178.1262 H   0  0  0  0  0  0  0  0  0  0  0  0
  1  2  2  0
  2  3  1  0
  3  4  1  0
  4  5  2  0
  5  6  1  0
  6  7  2  0
  7  8  1  0
  7  9  1  0
  9 10  2  0
  3 11  2  0
 11 12  1  0
 12 13  1  0
 13 14  2  0
 14 15  1  0
 15 16  1  0
 15 17  2  0
 17 18  1  0
 18 19  1  0
 17 20  1  0
 20 21  1  0
 20 22  2  0
 22  2  1  0
 10  4  1  0
 22 13  1  0
  5 23  1  0
  6 24  1  0
  8 25  1  0
  9 26  1  0
 10 27  1  0
 11 28  1  0
 14 29  1  0
 16 30  1  0
 19 31  1  0
 19 32  1  0
 19 33  1  0
 21 34  1  0
M  END
>  <docking_score>  (1) 
-6.3049999999999997

$$$$

     RDKit          3D

 34 36  0  0  0  0  0  0  0  0999 V2000
  139.2306  150.6805  175.5336 O   0  0  0  0  0  0  0  0  0  0  0  0
  140.4595  150.4156  175.5235 C   0  0  0  0  0  0  0  0  0  0  0  0
  141.3240  151.5192  175.5314 C   0  0  0  0  0  0  0  0  0  0  0  0
  140.8250  152.8876  175.5502 C   0  0  0  0  0  0  0  0  0  0  0  0
  140.8138  153.7101  174.4427 C   0  0  0  0  0  0  0  0  0  0  0  0
  140.3479  154.9979  174.4461 C   0  0  0  0  0  0  0  0  0  0  0  0
  139.8576  155.4973  175.6470 C   0  0  0  0  0  0  0  0  0  0  0  0
  139.3731  156.7965  175.7064 O   0  0  0  0  0  0  0  0  0  0  0  0
  139.8508  154.7122  176.7717 C   0  0  0  0  0  0  0  0  0  0  0  0
  140.3295  153.4184  176.7274 C   0  0  0  0  0  0  0  0  0  0  0  0
  142.6683  151.2283  175.5203 C   0  0  0  0  0  0  0  0  0  0  0  0
  143.1270  149.9999  175.5033 O   0  0  0  0  0  0  0  0  0  0  0  0
  142.3391  148.9563  175.4957 C   0  0  0  0  0  0  0  0  0  0  0  0
  142.9252  147.6978  175.4776 C   0  0  0  0  0  0  0  0  0  0  0  0
  142.0799  146.6220  175.4699 C   0  0  0  0  0  0  0  0  0  0  0  0
  142.6628  145.3413  175.4516 O   0  0  0  0  0  0  0  0  0  0  0  0
  140.7264  146.7982  175.4797 C   0  0  0  0  0  0  0  0  0  0  0  0
  139.9068  145.6849  175.4714 O   0  0  0  0  0  0  0  0  0  0  0  0
  139.5355  144.9821  174.3204 C   0  0  0  0  0  0  0  0  0  0  0  0
  140.1028  148.0515  175.4979 C   0  0  0  0  0  0  0  0  0  0  0  0
  138.7451  148.1157  175.5064 O   0  0  0  0  0  0  0  0  0  0  0  0
  140.9562  149.1304  175.5056 C   0  0  0  0  0  0  0  0  0  0  0  0
  141.2135  153.2621  173.5210 H   0  0  0  0  0  0  0  0  0  0  0  0
  140.3585  155.6115  173.5464 H   0  0  0  0  0  0  0  0  0  0  0  0
  139.9411  157.5665  176.0154 H   0  0  0  0  0  0  0  0  0  0  0  0
  139.4655  155.1181  177.6964 H   0  0  0  0  0  0  0  0  0  0  0  0
  140.3032  152.8367  177.6429 H   0  0  0  0  0  0  0  0  0  0  0  0
  143.3772  152.0451  175.5258 H   0  0  0  0  0  0  0  0  0  0  0  0
  143.9950  147.5463  175.4697 H   0  0  0  0  0  0  0  0  0  0  0  0
  142.5388  144.7104  174.6869 H   0  0  0  0  0  0  0  0  0  0  0  0
  140.2314  145.1088  173.4799 H   0  0  0  0  0  0  0  0  0  0  0  0
  138.5130  145.2584  173.9554 H   0  0  0  0  0  0  0  0  0  0  0  0
  139.4713  143.9031  174.5973 H   0  0  0  0  0  0  0  0  0  0  0  0
  138.1181  148.1036  174.7755 H   0  0  0  0  0  0  0  0  0  0  0  0
  1  2  2  0
  2  3  1  0
  3  4  1  0
  4  5  2  0
  5  6  1  0
  6  7  2  0
  7  8  1  0
  7  9  1  0
  9 10  2  0
  3 11  2  0
 11 12  1  0
 12 13  1  0
 13 14  2  0
 14 15  1  0
 15 16  1  0
 15 17  2  0
 17 18  1  0
 18 19  1  0
 17 20  1  0
 20 21  1  0
 20 22  2  0
 22  2  1  0
 10  4  1  0
 22 13  1  0
  5 23  1  0
  6 24  1  0
  8 25  1  0
  9 26  1  0
 10 27  1  0
 11 28  1  0
 14 29  1  0
 16 30  1  0
 19 31  1  0
 19 32  1  0
 19 33  1  0
 21 34  1  0
M  END
>  <docking_score>  (2) 
-5.8680000000000003

$$$$

     RDKit          3D

 34 36  0  0  0  0  0  0  0  0999 V2000
  135.1782  151.2623  196.4915 O   0  0  0  0  0  0  0  0  0  0  0  0
  136.3237  151.7695  196.3858 C   0  0  0  0  0  0  0  0  0  0  0  0
  136.6931  152.6647  197.3995 C   0  0  0  0  0  0  0  0  0  0  0  0
  135.8014  152.9850  198.5059 C   0  0  0  0  0  0  0  0  0  0  0  0
  135.3646  152.0552  199.4266 C   0  0  0  0  0  0  0  0  0  0  0  0
  134.5267  152.3423  200.4711 C   0  0  0  0  0  0  0  0  0  0  0  0
  134.0954  153.6571  200.6020 C   0  0  0  0  0  0  0  0  0  0  0  0
  133.2451  154.0029  201.6429 O   0  0  0  0  0  0  0  0  0  0  0  0
  134.5063  154.6125  199.7077 C   0  0  0  0  0  0  0  0  0  0  0  0
  135.3518  154.2830  198.6676 C   0  0  0  0  0  0  0  0  0  0  0  0
  137.9465  153.2189  197.2830 C   0  0  0  0  0  0  0  0  0  0  0  0
  138.7563  152.9367  196.2908 O   0  0  0  0  0  0  0  0  0  0  0  0
  138.4324  152.1050  195.3351 C   0  0  0  0  0  0  0  0  0  0  0  0
  139.3618  151.8743  194.3297 C   0  0  0  0  0  0  0  0  0  0  0  0
  138.9995  151.0004  193.3414 C   0  0  0  0  0  0  0  0  0  0  0  0
  139.9336  150.7588  192.3170 O   0  0  0  0  0  0  0  0  0  0  0  0
  137.7769  150.3937  193.3602 C   0  0  0  0  0  0  0  0  0  0  0  0
  137.4493  149.5170  192.3426 O   0  0  0  0  0  0  0  0  0  0  0  0
  136.7847  149.8800  191.1665 C   0  0  0  0  0  0  0  0  0  0  0  0
  136.8170  150.6034  194.3576 C   0  0  0  0  0  0  0  0  0  0  0  0
  135.6288  149.9478  194.2817 O   0  0  0  0  0  0  0  0  0  0  0  0
  137.1853  151.4827  195.3494 C   0  0  0  0  0  0  0  0  0  0  0  0
  135.7378  151.0318  199.2736 H   0  0  0  0  0  0  0  0  0  0  0  0
  134.2074  151.5748  201.1747 H   0  0  0  0  0  0  0  0  0  0  0  0
  132.7622  154.8845  201.6699 H   0  0  0  0  0  0  0  0  0  0  0  0
  134.1603  155.6297  199.8259 H   0  0  0  0  0  0  0  0  0  0  0  0
  135.6489  155.0734  197.9863 H   0  0  0  0  0  0  0  0  0  0  0  0
  138.2793  153.9161  198.0398 H   0  0  0  0  0  0  0  0  0  0  0  0
  140.3322  152.3487  194.3045 H   0  0  0  0  0  0  0  0  0  0  0  0
  140.9013  150.9877  192.4137 H   0  0  0  0  0  0  0  0  0  0  0  0
  137.1214  150.8366  190.7444 H   0  0  0  0  0  0  0  0  0  0  0  0
  135.6740  149.9426  191.2986 H   0  0  0  0  0  0  0  0  0  0  0  0
  136.9509  149.0618  190.4262 H   0  0  0  0  0  0  0  0  0  0  0  0
  134.9863  149.9074  193.5654 H   0  0  0  0  0  0  0  0  0  0  0  0
  1  2  2  0
  2  3  1  0
  3  4  1  0
  4  5  2  0
  5  6  1  0
  6  7  2  0
  7  8  1  0
  7  9  1  0
  9 10  2  0
  3 11  2  0
 11 12  1  0
 12 13  1  0
 13 14  2  0
 14 15  1  0
 15 16  1  0
 15 17  2  0
 17 18  1  0
 18 19  1  0
 17 20  1  0
 20 21  1  0
 20 22  2  0
 22  2  1  0
 10  4  1  0
 22 13  1  0
  5 23  1  0
  6 24  1  0
  8 25  1  0
  9 26  1  0
 10 27  1  0
 11 28  1  0
 14 29  1  0
 16 30  1  0
 19 31  1  0
 19 32  1  0
 19 33  1  0
 21 34  1  0
M  END
>  <docking_score>  (3) 
-5.3899999999999997

$$$$
