
     RDKit          3D

 27 29  0  0  0  0  0  0  0  0999 V2000
  113.6028  153.1429  177.8965 O   0  0  0  0  0  0  0  0  0  0  0  0
  114.4259  153.9273  177.3727 C   0  0  0  0  0  0  0  0  0  0  0  0
  114.3481  154.3299  176.0548 C   0  0  0  0  0  0  0  0  0  0  0  0
  115.2725  155.1965  175.5076 C   0  0  0  0  0  0  0  0  0  0  0  0
  115.1663  155.6207  174.0686 C   0  0  0  0  0  0  0  0  0  0  0  0
  116.2512  155.6506  176.2575 O   0  0  0  0  0  0  0  0  0  0  0  0
  116.3763  155.3015  177.5209 C   0  0  0  0  0  0  0  0  0  0  0  0
  117.4075  155.7914  178.2780 C   0  0  0  0  0  0  0  0  0  0  0  0
  117.5412  155.4328  179.5865 C   0  0  0  0  0  0  0  0  0  0  0  0
  118.4240  155.7672  180.4787 O   0  0  0  0  0  0  0  0  0  0  0  0
  118.1693  155.1819  181.6234 C   0  0  0  0  0  0  0  0  0  0  0  0
  117.0330  154.4044  181.4706 C   0  0  0  0  0  0  0  0  0  0  0  0
  116.6392  154.5690  180.1729 C   0  0  0  0  0  0  0  0  0  0  0  0
  115.5950  154.0592  179.4455 C   0  0  0  0  0  0  0  0  0  0  0  0
  114.6734  153.1936  179.9956 O   0  0  0  0  0  0  0  0  0  0  0  0
  113.9019  153.4410  181.1316 C   0  0  0  0  0  0  0  0  0  0  0  0
  115.4674  154.4260  178.1261 C   0  0  0  0  0  0  0  0  0  0  0  0
  113.5617  153.9750  175.4240 H   0  0  0  0  0  0  0  0  0  0  0  0
  115.1698  154.7436  173.4038 H   0  0  0  0  0  0  0  0  0  0  0  0
  115.9985  156.3015  173.7870 H   0  0  0  0  0  0  0  0  0  0  0  0
  114.2091  156.1758  173.9384 H   0  0  0  0  0  0  0  0  0  0  0  0
  118.1443  156.4828  177.8399 H   0  0  0  0  0  0  0  0  0  0  0  0
  118.7323  155.2720  182.5453 H   0  0  0  0  0  0  0  0  0  0  0  0
  116.5176  153.7805  182.1790 H   0  0  0  0  0  0  0  0  0  0  0  0
  113.0129  154.0862  180.9391 H   0  0  0  0  0  0  0  0  0  0  0  0
  114.5402  153.8476  181.9450 H   0  0  0  0  0  0  0  0  0  0  0  0
  113.5601  152.4353  181.5154 H   0  0  0  0  0  0  0  0  0  0  0  0
  1  2  2  0
  2  3  1  0
  3  4  2  0
  4  5  1  0
  4  6  1  0
  6  7  1  0
  7  8  2  0
  8  9  1  0
  9 10  1  0
 10 11  1  0
 11 12  2  0
  9 13  2  0
 13 14  1  0
 14 15  1  0
 15 16  1  0
 14 17  2  0
 17  2  1  0
 17  7  1  0
 13 12  1  0
  3 18  1  0
  5 19  1  0
  5 20  1  0
  5 21  1  0
  8 22  1  0
 11 23  1  0
 12 24  1  0
 16 25  1  0
 16 26  1  0
 16 27  1  0
M  END
>  <docking_score>  (1) 
-5.3609999999999998

$$$$

     RDKit          3D

 27 29  0  0  0  0  0  0  0  0999 V2000
  139.3598  155.0808  177.4517 O   0  0  0  0  0  0  0  0  0  0  0  0
  139.7460  155.1699  176.2643 C   0  0  0  0  0  0  0  0  0  0  0  0
  139.8171  156.3686  175.5839 C   0  0  0  0  0  0  0  0  0  0  0  0
  140.2475  156.4324  174.2742 C   0  0  0  0  0  0  0  0  0  0  0  0
  140.3163  157.7509  173.5541 C   0  0  0  0  0  0  0  0  0  0  0  0
  140.5987  155.3263  173.6578 O   0  0  0  0  0  0  0  0  0  0  0  0
  140.5517  154.1542  174.2559 C   0  0  0  0  0  0  0  0  0  0  0  0
  140.9242  153.0180  173.5874 C   0  0  0  0  0  0  0  0  0  0  0  0
  140.8771  151.8022  174.2023 C   0  0  0  0  0  0  0  0  0  0  0  0
  141.1769  150.6140  173.7715 O   0  0  0  0  0  0  0  0  0  0  0  0
  140.9801  149.7189  174.7085 C   0  0  0  0  0  0  0  0  0  0  0  0
  140.5159  150.3694  175.8401 C   0  0  0  0  0  0  0  0  0  0  0  0
  140.4531  151.6937  175.5107 C   0  0  0  0  0  0  0  0  0  0  0  0
  140.0727  152.8095  176.2104 C   0  0  0  0  0  0  0  0  0  0  0  0
  139.6432  152.7419  177.5190 O   0  0  0  0  0  0  0  0  0  0  0  0
  138.4969  152.0838  177.9660 C   0  0  0  0  0  0  0  0  0  0  0  0
  140.1231  154.0323  175.5827 C   0  0  0  0  0  0  0  0  0  0  0  0
  139.5372  157.2823  176.0627 H   0  0  0  0  0  0  0  0  0  0  0  0
  139.8645  158.5495  174.1618 H   0  0  0  0  0  0  0  0  0  0  0  0
  139.8024  157.6995  172.5699 H   0  0  0  0  0  0  0  0  0  0  0  0
  141.3883  157.9921  173.3698 H   0  0  0  0  0  0  0  0  0  0  0  0
  141.2674  153.0705  172.5422 H   0  0  0  0  0  0  0  0  0  0  0  0
  141.1434  148.6497  174.6383 H   0  0  0  0  0  0  0  0  0  0  0  0
  140.2441  149.9778  176.8042 H   0  0  0  0  0  0  0  0  0  0  0  0
  138.3840  152.0816  179.0754 H   0  0  0  0  0  0  0  0  0  0  0  0
  138.4577  151.0569  177.5438 H   0  0  0  0  0  0  0  0  0  0  0  0
  137.6164  152.6158  177.4999 H   0  0  0  0  0  0  0  0  0  0  0  0
  1  2  2  0
  2  3  1  0
  3  4  2  0
  4  5  1  0
  4  6  1  0
  6  7  1  0
  7  8  2  0
  8  9  1  0
  9 10  1  0
 10 11  1  0
 11 12  2  0
  9 13  2  0
 13 14  1  0
 14 15  1  0
 15 16  1  0
 14 17  2  0
 17  2  1  0
 17  7  1  0
 13 12  1  0
  3 18  1  0
  5 19  1  0
  5 20  1  0
  5 21  1  0
  8 22  1  0
 11 23  1  0
 12 24  1  0
 16 25  1  0
 16 26  1  0
 16 27  1  0
M  END
>  <docking_score>  (2) 
-4.899

$$$$

     RDKit          3D

 27 29  0  0  0  0  0  0  0  0999 V2000
  116.7371  156.1535  176.2143 O   0  0  0  0  0  0  0  0  0  0  0  0
  115.7441  155.3921  176.1784 C   0  0  0  0  0  0  0  0  0  0  0  0
  115.0059  155.1716  175.0332 C   0  0  0  0  0  0  0  0  0  0  0  0
  113.9156  154.3254  175.0274 C   0  0  0  0  0  0  0  0  0  0  0  0
  113.1270  154.1013  173.7665 C   0  0  0  0  0  0  0  0  0  0  0  0
  113.5700  153.7138  176.1378 O   0  0  0  0  0  0  0  0  0  0  0  0
  114.2362  153.8854  177.2604 C   0  0  0  0  0  0  0  0  0  0  0  0
  113.8521  153.2340  178.4026 C   0  0  0  0  0  0  0  0  0  0  0  0
  114.5387  153.4085  179.5673 C   0  0  0  0  0  0  0  0  0  0  0  0
  114.3583  152.9030  180.7502 O   0  0  0  0  0  0  0  0  0  0  0  0
  115.2635  153.3488  181.5867 C   0  0  0  0  0  0  0  0  0  0  0  0
  116.1014  154.2124  180.9004 C   0  0  0  0  0  0  0  0  0  0  0  0
  115.6345  154.2453  179.6171 C   0  0  0  0  0  0  0  0  0  0  0  0
  116.0474  154.9135  178.4935 C   0  0  0  0  0  0  0  0  0  0  0  0
  117.1373  155.7582  178.5031 O   0  0  0  0  0  0  0  0  0  0  0  0
  118.4236  155.4216  178.9259 C   0  0  0  0  0  0  0  0  0  0  0  0
  115.3492  154.7318  177.3225 C   0  0  0  0  0  0  0  0  0  0  0  0
  115.2663  155.6569  174.1173 H   0  0  0  0  0  0  0  0  0  0  0  0
  112.7457  153.0697  173.7249 H   0  0  0  0  0  0  0  0  0  0  0  0
  113.7439  154.3042  172.8644 H   0  0  0  0  0  0  0  0  0  0  0  0
  112.2677  154.8105  173.7619 H   0  0  0  0  0  0  0  0  0  0  0  0
  112.9817  152.5591  178.3963 H   0  0  0  0  0  0  0  0  0  0  0  0
  115.3631  153.1019  182.6374 H   0  0  0  0  0  0  0  0  0  0  0  0
  116.9548  154.7706  181.2424 H   0  0  0  0  0  0  0  0  0  0  0  0
  118.5190  154.3685  179.2802 H   0  0  0  0  0  0  0  0  0  0  0  0
  118.7769  156.1485  179.6884 H   0  0  0  0  0  0  0  0  0  0  0  0
  119.1072  155.5838  178.0416 H   0  0  0  0  0  0  0  0  0  0  0  0
  1  2  2  0
  2  3  1  0
  3  4  2  0
  4  5  1  0
  4  6  1  0
  6  7  1  0
  7  8  2  0
  8  9  1  0
  9 10  1  0
 10 11  1  0
 11 12  2  0
  9 13  2  0
 13 14  1  0
 14 15  1  0
 15 16  1  0
 14 17  2  0
 17  2  1  0
 17  7  1  0
 13 12  1  0
  3 18  1  0
  5 19  1  0
  5 20  1  0
  5 21  1  0
  8 22  1  0
 11 23  1  0
 12 24  1  0
 16 25  1  0
 16 26  1  0
 16 27  1  0
M  END
>  <docking_score>  (3) 
-4.7809999999999997

$$$$
