
     RDKit          3D

 44 46  0  0  0  0  0  0  0  0999 V2000
  120.1810  152.5579  174.2379 C   0  0  0  0  0  0  0  0  0  0  0  0
  119.0292  151.6151  174.1385 C   0  0  0  0  0  0  0  0  0  0  0  0
  117.7851  152.0286  174.0775 C   0  0  0  0  0  0  0  0  0  0  0  0
  116.6825  151.0589  173.9801 C   0  0  0  0  0  0  0  0  0  0  0  0
  117.4881  153.4501  174.1059 C   0  0  0  0  0  0  0  0  0  0  0  0
  117.5437  154.2228  175.2399 O   0  0  0  0  0  0  0  0  0  0  0  0
  116.5083  154.6690  176.0403 C   0  0  0  0  0  0  0  0  0  0  0  0
  116.1131  156.1048  175.7767 C   0  0  0  0  0  0  0  0  0  0  0  0
  116.7091  154.4899  177.5233 C   0  0  2  0  0  0  0  0  0  0  0  0
  115.7865  155.4023  178.3048 C   0  0  0  0  0  0  0  0  0  0  0  0
  116.5578  155.7892  179.5239 C   0  0  0  0  0  0  0  0  0  0  0  0
  116.1505  156.3697  180.7008 C   0  0  0  0  0  0  0  0  0  0  0  0
  114.9040  156.6939  180.9341 O   0  0  0  0  0  0  0  0  0  0  0  0
  117.1150  156.6117  181.6636 C   0  0  0  0  0  0  0  0  0  0  0  0
  116.7155  157.2024  182.8672 C   0  0  0  0  0  0  0  0  0  0  0  0
  115.3954  157.5135  183.0396 C   0  0  0  0  0  0  0  0  0  0  0  0
  114.4868  157.2478  182.0453 C   0  0  0  0  0  0  0  0  0  0  0  0
  113.2752  157.5345  182.2059 O   0  0  0  0  0  0  0  0  0  0  0  0
  118.4156  156.2813  181.4383 C   0  0  0  0  0  0  0  0  0  0  0  0
  118.8006  155.6988  180.2477 C   0  0  0  0  0  0  0  0  0  0  0  0
  117.8651  155.4435  179.2661 C   0  0  0  0  0  0  0  0  0  0  0  0
  117.9639  154.8768  177.9930 O   0  0  0  0  0  0  0  0  0  0  0  0
  115.2792  153.8373  175.6124 C   0  0  0  0  0  0  0  0  0  0  0  0
  117.1487  154.0695  173.0359 O   0  0  0  0  0  0  0  0  0  0  0  0
  120.0376  153.2760  175.0712 H   0  0  0  0  0  0  0  0  0  0  0  0
  121.1165  151.9806  174.4777 H   0  0  0  0  0  0  0  0  0  0  0  0
  120.2651  153.1496  173.3259 H   0  0  0  0  0  0  0  0  0  0  0  0
  119.2791  150.5385  174.1185 H   0  0  0  0  0  0  0  0  0  0  0  0
  117.0263  150.0928  173.5233 H   0  0  0  0  0  0  0  0  0  0  0  0
  115.8651  151.4132  173.2948 H   0  0  0  0  0  0  0  0  0  0  0  0
  116.1931  150.8329  174.9374 H   0  0  0  0  0  0  0  0  0  0  0  0
  116.5825  156.7955  176.5345 H   0  0  0  0  0  0  0  0  0  0  0  0
  115.0149  156.2588  175.7954 H   0  0  0  0  0  0  0  0  0  0  0  0
  116.4745  156.4827  174.7985 H   0  0  0  0  0  0  0  0  0  0  0  0
  116.5593  153.4244  177.8270 H   0  0  0  0  0  0  0  0  0  0  0  0
  114.8730  154.8611  178.6258 H   0  0  0  0  0  0  0  0  0  0  0  0
  115.5772  156.3272  177.7605 H   0  0  0  0  0  0  0  0  0  0  0  0
  117.4370  157.4028  183.6323 H   0  0  0  0  0  0  0  0  0  0  0  0
  115.0293  157.9711  183.9485 H   0  0  0  0  0  0  0  0  0  0  0  0
  119.1449  156.4860  182.2167 H   0  0  0  0  0  0  0  0  0  0  0  0
  119.8461  155.4379  180.0776 H   0  0  0  0  0  0  0  0  0  0  0  0
  114.4131  154.1539  176.2021 H   0  0  0  0  0  0  0  0  0  0  0  0
  115.1097  154.0115  174.5189 H   0  0  0  0  0  0  0  0  0  0  0  0
  115.4645  152.7697  175.7323 H   0  0  0  0  0  0  0  0  0  0  0  0
  1  2  1  0
  2  3  2  0
  3  4  1  0
  3  5  1  0
  5  6  1  0
  6  7  1  0
  7  8  1  0
  7  9  1  0
  9 10  1  0
 10 11  1  0
 11 12  2  0
 12 13  1  0
 12 14  1  0
 14 15  1  0
 15 16  2  0
 16 17  1  0
 17 18  2  0
 14 19  2  0
 19 20  1  0
 20 21  2  0
 21 22  1  0
  7 23  1  0
  5 24  2  0
 22  9  1  0
 21 11  1  0
 17 13  1  0
  1 25  1  0
  1 26  1  0
  1 27  1  0
  2 28  1  0
  4 29  1  0
  4 30  1  0
  4 31  1  0
  8 32  1  0
  8 33  1  0
  8 34  1  0
  9 35  1  1
 10 36  1  0
 10 37  1  0
 15 38  1  0
 16 39  1  0
 19 40  1  0
 20 41  1  0
 23 42  1  0
 23 43  1  0
 23 44  1  0
M  END
>  <docking_score>  (1) 
-5.351

$$$$

     RDKit          3D

 44 46  0  0  0  0  0  0  0  0999 V2000
  134.1305  151.5860  200.8903 C   0  0  0  0  0  0  0  0  0  0  0  0
  134.4778  152.8962  200.2673 C   0  0  0  0  0  0  0  0  0  0  0  0
  135.4487  153.0241  199.3936 C   0  0  0  0  0  0  0  0  0  0  0  0
  135.7533  154.3388  198.8066 C   0  0  0  0  0  0  0  0  0  0  0  0
  136.2310  151.8655  198.9995 C   0  0  0  0  0  0  0  0  0  0  0  0
  136.3771  151.4443  197.7006 O   0  0  0  0  0  0  0  0  0  0  0  0
  135.4651  150.7956  196.8886 C   0  0  0  0  0  0  0  0  0  0  0  0
  134.3744  150.0789  197.6529 C   0  0  0  0  0  0  0  0  0  0  0  0
  136.0544  149.8405  195.8825 C   0  0  2  0  0  0  0  0  0  0  0  0
  136.9065  150.5813  194.8729 C   0  0  0  0  0  0  0  0  0  0  0  0
  136.7262  149.8404  193.5886 C   0  0  0  0  0  0  0  0  0  0  0  0
  137.4408  149.8837  192.4158 C   0  0  0  0  0  0  0  0  0  0  0  0
  138.4819  150.6598  192.2513 O   0  0  0  0  0  0  0  0  0  0  0  0
  137.0241  149.0647  191.3807 C   0  0  0  0  0  0  0  0  0  0  0  0
  137.7418  149.0979  190.1802 C   0  0  0  0  0  0  0  0  0  0  0  0
  138.8190  149.9341  190.0820 C   0  0  0  0  0  0  0  0  0  0  0  0
  139.1818  150.7222  191.1460 C   0  0  0  0  0  0  0  0  0  0  0  0
  140.1713  151.4892  191.0533 O   0  0  0  0  0  0  0  0  0  0  0  0
  135.9440  148.2516  191.5338 C   0  0  0  0  0  0  0  0  0  0  0  0
  135.2419  148.2254  192.7218 C   0  0  0  0  0  0  0  0  0  0  0  0
  135.6298  149.0289  193.7744 C   0  0  0  0  0  0  0  0  0  0  0  0
  135.1205  149.2070  195.0630 O   0  0  0  0  0  0  0  0  0  0  0  0
  134.7350  151.9200  196.1217 C   0  0  0  0  0  0  0  0  0  0  0  0
  136.8421  151.1588  199.8776 O   0  0  0  0  0  0  0  0  0  0  0  0
  133.0350  151.4929  201.0384 H   0  0  0  0  0  0  0  0  0  0  0  0
  134.4259  150.7519  200.1952 H   0  0  0  0  0  0  0  0  0  0  0  0
  134.5877  151.5034  201.8767 H   0  0  0  0  0  0  0  0  0  0  0  0
  133.8693  153.7637  200.5821 H   0  0  0  0  0  0  0  0  0  0  0  0
  136.3672  154.2374  197.8722 H   0  0  0  0  0  0  0  0  0  0  0  0
  136.3871  154.9706  199.4866 H   0  0  0  0  0  0  0  0  0  0  0  0
  134.8680  154.9461  198.5734 H   0  0  0  0  0  0  0  0  0  0  0  0
  134.0804  150.6611  198.5729 H   0  0  0  0  0  0  0  0  0  0  0  0
  134.6688  149.0562  197.9649 H   0  0  0  0  0  0  0  0  0  0  0  0
  133.4320  149.9808  197.0763 H   0  0  0  0  0  0  0  0  0  0  0  0
  136.6479  149.0373  196.3852 H   0  0  0  0  0  0  0  0  0  0  0  0
  137.9789  150.5396  195.1532 H   0  0  0  0  0  0  0  0  0  0  0  0
  136.5391  151.5969  194.7022 H   0  0  0  0  0  0  0  0  0  0  0  0
  137.4453  148.4767  189.3602 H   0  0  0  0  0  0  0  0  0  0  0  0
  139.4106  150.0014  189.1793 H   0  0  0  0  0  0  0  0  0  0  0  0
  135.6460  147.6227  190.6998 H   0  0  0  0  0  0  0  0  0  0  0  0
  134.3774  147.5696  192.8337 H   0  0  0  0  0  0  0  0  0  0  0  0
  135.4792  152.5909  195.6811 H   0  0  0  0  0  0  0  0  0  0  0  0
  134.1023  151.4420  195.3305 H   0  0  0  0  0  0  0  0  0  0  0  0
  134.0551  152.4662  196.7759 H   0  0  0  0  0  0  0  0  0  0  0  0
  1  2  1  0
  2  3  2  0
  3  4  1  0
  3  5  1  0
  5  6  1  0
  6  7  1  0
  7  8  1  0
  7  9  1  0
  9 10  1  0
 10 11  1  0
 11 12  2  0
 12 13  1  0
 12 14  1  0
 14 15  1  0
 15 16  2  0
 16 17  1  0
 17 18  2  0
 14 19  2  0
 19 20  1  0
 20 21  2  0
 21 22  1  0
  7 23  1  0
  5 24  2  0
 22  9  1  0
 21 11  1  0
 17 13  1  0
  1 25  1  0
  1 26  1  0
  1 27  1  0
  2 28  1  0
  4 29  1  0
  4 30  1  0
  4 31  1  0
  8 32  1  0
  8 33  1  0
  8 34  1  0
  9 35  1  1
 10 36  1  0
 10 37  1  0
 15 38  1  0
 16 39  1  0
 19 40  1  0
 20 41  1  0
 23 42  1  0
 23 43  1  0
 23 44  1  0
M  END
>  <docking_score>  (2) 
-5.1950000000000003

$$$$

     RDKit          3D

 44 46  0  0  0  0  0  0  0  0999 V2000
  114.2685  154.4966  181.1555 C   0  0  0  0  0  0  0  0  0  0  0  0
  115.7185  154.3814  181.4866 C   0  0  0  0  0  0  0  0  0  0  0  0
  116.5428  155.3989  181.3993 C   0  0  0  0  0  0  0  0  0  0  0  0
  117.9657  155.2350  181.7372 C   0  0  0  0  0  0  0  0  0  0  0  0
  116.0543  156.6967  180.9673 C   0  0  0  0  0  0  0  0  0  0  0  0
  115.5763  157.6597  181.8218 O   0  0  0  0  0  0  0  0  0  0  0  0
  114.5903  158.6042  181.6040 C   0  0  0  0  0  0  0  0  0  0  0  0
  113.2808  158.0158  181.1283 C   0  0  0  0  0  0  0  0  0  0  0  0
  114.9685  159.7395  180.6876 C   0  0  2  0  0  0  0  0  0  0  0  0
  114.5553  161.0703  181.2814 C   0  0  0  0  0  0  0  0  0  0  0  0
  114.1779  161.9209  180.1131 C   0  0  0  0  0  0  0  0  0  0  0  0
  113.9843  163.2774  180.0119 C   0  0  0  0  0  0  0  0  0  0  0  0
  114.1191  164.0881  181.0306 O   0  0  0  0  0  0  0  0  0  0  0  0
  113.6332  163.7841  178.7726 C   0  0  0  0  0  0  0  0  0  0  0  0
  113.4326  165.1636  178.6539 C   0  0  0  0  0  0  0  0  0  0  0  0
  113.5916  165.9480  179.7623 C   0  0  0  0  0  0  0  0  0  0  0  0
  113.9412  165.3840  180.9641 C   0  0  0  0  0  0  0  0  0  0  0  0
  114.0864  166.1065  181.9805 O   0  0  0  0  0  0  0  0  0  0  0  0
  113.4886  162.9562  177.7025 C   0  0  0  0  0  0  0  0  0  0  0  0
  113.6885  161.5964  177.8289 C   0  0  0  0  0  0  0  0  0  0  0  0
  114.0393  161.0576  179.0498 C   0  0  0  0  0  0  0  0  0  0  0  0
  114.2995  159.7490  179.4639 O   0  0  0  0  0  0  0  0  0  0  0  0
  114.2757  159.1894  182.9983 C   0  0  0  0  0  0  0  0  0  0  0  0
  116.0472  157.0130  179.7248 O   0  0  0  0  0  0  0  0  0  0  0  0
  113.8402  153.5080  180.8911 H   0  0  0  0  0  0  0  0  0  0  0  0
  113.7052  154.8510  182.0628 H   0  0  0  0  0  0  0  0  0  0  0  0
  114.1291  155.1404  180.2867 H   0  0  0  0  0  0  0  0  0  0  0  0
  116.0676  153.3846  181.8130 H   0  0  0  0  0  0  0  0  0  0  0  0
  118.2137  154.1619  181.9547 H   0  0  0  0  0  0  0  0  0  0  0  0
  118.2434  155.7796  182.6803 H   0  0  0  0  0  0  0  0  0  0  0  0
  118.6585  155.5997  180.9664 H   0  0  0  0  0  0  0  0  0  0  0  0
  112.6905  158.7750  180.5394 H   0  0  0  0  0  0  0  0  0  0  0  0
  112.6469  157.6484  181.9609 H   0  0  0  0  0  0  0  0  0  0  0  0
  113.4148  157.1670  180.4271 H   0  0  0  0  0  0  0  0  0  0  0  0
  116.0637  159.7314  180.4627 H   0  0  0  0  0  0  0  0  0  0  0  0
  115.4068  161.5520  181.8043 H   0  0  0  0  0  0  0  0  0  0  0  0
  113.6597  160.9752  181.9013 H   0  0  0  0  0  0  0  0  0  0  0  0
  113.1602  165.5870  177.7091 H   0  0  0  0  0  0  0  0  0  0  0  0
  113.4497  167.0196  179.7300 H   0  0  0  0  0  0  0  0  0  0  0  0
  113.2122  163.3892  176.7455 H   0  0  0  0  0  0  0  0  0  0  0  0
  113.5699  160.9418  176.9643 H   0  0  0  0  0  0  0  0  0  0  0  0
  113.6580  158.4755  183.5522 H   0  0  0  0  0  0  0  0  0  0  0  0
  115.2489  159.3737  183.5216 H   0  0  0  0  0  0  0  0  0  0  0  0
  113.7782  160.1560  182.9170 H   0  0  0  0  0  0  0  0  0  0  0  0
  1  2  1  0
  2  3  2  0
  3  4  1  0
  3  5  1  0
  5  6  1  0
  6  7  1  0
  7  8  1  0
  7  9  1  0
  9 10  1  0
 10 11  1  0
 11 12  2  0
 12 13  1  0
 12 14  1  0
 14 15  1  0
 15 16  2  0
 16 17  1  0
 17 18  2  0
 14 19  2  0
 19 20  1  0
 20 21  2  0
 21 22  1  0
  7 23  1  0
  5 24  2  0
 22  9  1  0
 21 11  1  0
 17 13  1  0
  1 25  1  0
  1 26  1  0
  1 27  1  0
  2 28  1  0
  4 29  1  0
  4 30  1  0
  4 31  1  0
  8 32  1  0
  8 33  1  0
  8 34  1  0
  9 35  1  6
 10 36  1  0
 10 37  1  0
 15 38  1  0
 16 39  1  0
 19 40  1  0
 20 41  1  0
 23 42  1  0
 23 43  1  0
 23 44  1  0
M  END
>  <docking_score>  (3) 
-5.1299999999999999

$$$$
