
     RDKit          3D

 34 35  0  0  0  0  0  0  0  0999 V2000
  142.4203  155.2726  173.7989 C   0  0  0  0  0  0  0  0  0  0  0  0
  141.4457  154.4683  174.5907 C   0  0  0  0  0  0  0  0  0  0  0  0
  140.5136  153.7311  173.7092 C   0  0  0  0  0  0  0  0  0  0  0  0
  140.7254  155.3089  175.6535 C   0  0  1  0  0  0  0  0  0  0  0  0
  139.9447  156.4196  175.1087 C   0  0  0  0  0  0  0  0  0  0  0  0
  139.9465  154.2388  176.3633 C   0  0  2  0  0  0  0  0  0  0  0  0
  139.4593  154.6376  177.6118 O   0  0  0  0  0  0  0  0  0  0  0  0
  138.4673  153.9537  178.2832 C   0  0  0  0  0  0  0  0  0  0  0  0
  137.6089  152.9113  177.6653 C   0  0  0  0  0  0  0  0  0  0  0  0
  138.2686  154.2218  179.4953 O   0  0  0  0  0  0  0  0  0  0  0  0
  140.9761  153.1290  176.4654 C   0  0  0  0  0  0  0  0  0  0  0  0
  142.1483  153.5523  175.6053 C   0  0  2  0  0  0  0  0  0  0  0  0
  142.9242  154.5700  176.3805 C   0  0  0  0  0  0  0  0  0  0  0  0
  141.8880  155.6920  176.5301 C   0  0  0  0  0  0  0  0  0  0  0  0
  142.9978  155.9017  174.4931 H   0  0  0  0  0  0  0  0  0  0  0  0
  143.1484  154.6576  173.2240 H   0  0  0  0  0  0  0  0  0  0  0  0
  141.8578  155.9642  173.1370 H   0  0  0  0  0  0  0  0  0  0  0  0
  140.9966  152.9757  173.0554 H   0  0  0  0  0  0  0  0  0  0  0  0
  139.7405  153.1817  174.2941 H   0  0  0  0  0  0  0  0  0  0  0  0
  139.9384  154.4826  173.1021 H   0  0  0  0  0  0  0  0  0  0  0  0
  138.8688  156.2592  175.3071 H   0  0  0  0  0  0  0  0  0  0  0  0
  140.1894  156.6017  174.0678 H   0  0  0  0  0  0  0  0  0  0  0  0
  140.2121  157.3571  175.6713 H   0  0  0  0  0  0  0  0  0  0  0  0
  139.1188  153.8248  175.7301 H   0  0  0  0  0  0  0  0  0  0  0  0
  136.5877  152.8902  178.1243 H   0  0  0  0  0  0  0  0  0  0  0  0
  138.0810  151.9158  177.6632 H   0  0  0  0  0  0  0  0  0  0  0  0
  137.4344  153.2144  176.5932 H   0  0  0  0  0  0  0  0  0  0  0  0
  141.3475  153.0768  177.5291 H   0  0  0  0  0  0  0  0  0  0  0  0
  140.5865  152.1552  176.1508 H   0  0  0  0  0  0  0  0  0  0  0  0
  142.7034  152.7565  175.1568 H   0  0  0  0  0  0  0  0  0  0  0  0
  143.2576  154.2177  177.3699 H   0  0  0  0  0  0  0  0  0  0  0  0
  143.8220  154.9429  175.8435 H   0  0  0  0  0  0  0  0  0  0  0  0
  141.5355  155.6591  177.5811 H   0  0  0  0  0  0  0  0  0  0  0  0
  142.3467  156.6537  176.2678 H   0  0  0  0  0  0  0  0  0  0  0  0
  1  2  1  0
  2  3  1  0
  2  4  1  0
  4  5  1  6
  4  6  1  0
  6  7  1  0
  7  8  1  0
  8  9  1  0
  8 10  2  0
  6 11  1  0
 11 12  1  0
 12 13  1  0
 13 14  1  0
 12  2  1  0
 14  4  1  0
  1 15  1  0
  1 16  1  0
  1 17  1  0
  3 18  1  0
  3 19  1  0
  3 20  1  0
  5 21  1  0
  5 22  1  0
  5 23  1  0
  6 24  1  6
  9 25  1  0
  9 26  1  0
  9 27  1  0
 11 28  1  0
 11 29  1  0
 12 30  1  6
 13 31  1  0
 13 32  1  0
 14 33  1  0
 14 34  1  0
M  END
>  <docking_score>  (1) 
-4.4530000000000003

$$$$

     RDKit          3D

 34 35  0  0  0  0  0  0  0  0999 V2000
  117.5367  153.4839  179.6821 C   0  0  0  0  0  0  0  0  0  0  0  0
  116.5245  154.4520  180.1940 C   0  0  0  0  0  0  0  0  0  0  0  0
  115.1513  154.0390  179.8290 C   0  0  0  0  0  0  0  0  0  0  0  0
  116.8430  155.8967  179.7862 C   0  0  1  0  0  0  0  0  0  0  0  0
  116.8780  156.1155  178.3402 C   0  0  0  0  0  0  0  0  0  0  0  0
  115.7733  156.6333  180.5406 C   0  0  2  0  0  0  0  0  0  0  0  0
  116.0149  158.0057  180.6552 O   0  0  0  0  0  0  0  0  0  0  0  0
  115.0044  158.9423  180.7224 C   0  0  0  0  0  0  0  0  0  0  0  0
  114.5823  159.7959  179.5830 C   0  0  0  0  0  0  0  0  0  0  0  0
  114.3957  159.0909  181.8123 O   0  0  0  0  0  0  0  0  0  0  0  0
  115.8000  155.9217  181.8804 C   0  0  0  0  0  0  0  0  0  0  0  0
  116.6842  154.7054  181.7015 C   0  0  2  0  0  0  0  0  0  0  0  0
  118.1033  155.1782  181.7367 C   0  0  0  0  0  0  0  0  0  0  0  0
  118.1455  156.1028  180.5127 C   0  0  0  0  0  0  0  0  0  0  0  0
  117.5317  152.5976  180.3345 H   0  0  0  0  0  0  0  0  0  0  0  0
  117.3391  153.1336  178.6444 H   0  0  0  0  0  0  0  0  0  0  0  0
  118.5449  153.9399  179.7741 H   0  0  0  0  0  0  0  0  0  0  0  0
  114.4913  154.8689  179.5017 H   0  0  0  0  0  0  0  0  0  0  0  0
  115.1510  153.2994  178.9955 H   0  0  0  0  0  0  0  0  0  0  0  0
  114.7071  153.4903  180.7040 H   0  0  0  0  0  0  0  0  0  0  0  0
  116.2175  155.3891  177.8314 H   0  0  0  0  0  0  0  0  0  0  0  0
  117.8966  156.1367  177.9682 H   0  0  0  0  0  0  0  0  0  0  0  0
  116.4328  157.1252  178.1184 H   0  0  0  0  0  0  0  0  0  0  0  0
  114.7509  156.4459  180.1200 H   0  0  0  0  0  0  0  0  0  0  0  0
  114.7634  160.8815  179.7894 H   0  0  0  0  0  0  0  0  0  0  0  0
  113.5444  159.6035  179.2673 H   0  0  0  0  0  0  0  0  0  0  0  0
  115.2593  159.5530  178.7145 H   0  0  0  0  0  0  0  0  0  0  0  0
  116.3052  156.5904  182.6352 H   0  0  0  0  0  0  0  0  0  0  0  0
  114.8029  155.6370  182.2323 H   0  0  0  0  0  0  0  0  0  0  0  0
  116.4379  153.8617  182.3098 H   0  0  0  0  0  0  0  0  0  0  0  0
  118.3652  155.7350  182.6507 H   0  0  0  0  0  0  0  0  0  0  0  0
  118.8442  154.3581  181.6265 H   0  0  0  0  0  0  0  0  0  0  0  0
  118.1476  157.1417  180.9009 H   0  0  0  0  0  0  0  0  0  0  0  0
  119.0336  155.8748  179.9098 H   0  0  0  0  0  0  0  0  0  0  0  0
  1  2  1  0
  2  3  1  0
  2  4  1  0
  4  5  1  6
  4  6  1  0
  6  7  1  0
  7  8  1  0
  8  9  1  0
  8 10  2  0
  6 11  1  0
 11 12  1  0
 12 13  1  0
 13 14  1  0
 12  2  1  0
 14  4  1  0
  1 15  1  0
  1 16  1  0
  1 17  1  0
  3 18  1  0
  3 19  1  0
  3 20  1  0
  5 21  1  0
  5 22  1  0
  5 23  1  0
  6 24  1  6
  9 25  1  0
  9 26  1  0
  9 27  1  0
 11 28  1  0
 11 29  1  0
 12 30  1  1
 13 31  1  0
 13 32  1  0
 14 33  1  0
 14 34  1  0
M  END
>  <docking_score>  (2) 
-4.2859999999999996

$$$$

     RDKit          3D

 34 35  0  0  0  0  0  0  0  0999 V2000
  117.9327  153.4082  179.9632 C   0  0  0  0  0  0  0  0  0  0  0  0
  117.6411  154.8687  179.8889 C   0  0  0  0  0  0  0  0  0  0  0  0
  118.7484  155.6069  179.2419 C   0  0  0  0  0  0  0  0  0  0  0  0
  117.2482  155.4537  181.2520 C   0  0  1  0  0  0  0  0  0  0  0  0
  118.2836  155.3266  182.2776 C   0  0  0  0  0  0  0  0  0  0  0  0
  116.8833  156.8543  180.8510 C   0  0  2  0  0  0  0  0  0  0  0  0
  116.1446  157.5387  181.8211 O   0  0  0  0  0  0  0  0  0  0  0  0
  115.0529  158.3249  181.5164 C   0  0  0  0  0  0  0  0  0  0  0  0
  113.6426  157.9091  181.7242 C   0  0  0  0  0  0  0  0  0  0  0  0
  115.2530  159.4674  181.0316 O   0  0  0  0  0  0  0  0  0  0  0  0
  116.0929  156.6111  179.5788 C   0  0  0  0  0  0  0  0  0  0  0  0
  116.2805  155.1492  179.2313 C   0  0  2  0  0  0  0  0  0  0  0  0
  115.3873  154.3591  180.1349 C   0  0  0  0  0  0  0  0  0  0  0  0
  115.9709  154.7004  181.5125 C   0  0  0  0  0  0  0  0  0  0  0  0
  116.9961  152.8775  180.1925 H   0  0  0  0  0  0  0  0  0  0  0  0
  118.3333  152.9811  179.0168 H   0  0  0  0  0  0  0  0  0  0  0  0
  118.6186  153.2243  180.8167 H   0  0  0  0  0  0  0  0  0  0  0  0
  119.1955  156.4083  179.8659 H   0  0  0  0  0  0  0  0  0  0  0  0
  119.5884  154.9295  178.9639 H   0  0  0  0  0  0  0  0  0  0  0  0
  118.3713  156.0175  178.2656 H   0  0  0  0  0  0  0  0  0  0  0  0
  119.2701  155.5926  181.8545 H   0  0  0  0  0  0  0  0  0  0  0  0
  118.2462  154.3554  182.7590 H   0  0  0  0  0  0  0  0  0  0  0  0
  118.0906  156.0917  183.0802 H   0  0  0  0  0  0  0  0  0  0  0  0
  117.7783  157.4541  180.5399 H   0  0  0  0  0  0  0  0  0  0  0  0
  113.2247  158.3235  182.6768 H   0  0  0  0  0  0  0  0  0  0  0  0
  113.5043  156.8184  181.6529 H   0  0  0  0  0  0  0  0  0  0  0  0
  113.0288  158.3901  180.9094 H   0  0  0  0  0  0  0  0  0  0  0  0
  114.9971  156.7612  179.7995 H   0  0  0  0  0  0  0  0  0  0  0  0
  116.4059  157.2571  178.7519 H   0  0  0  0  0  0  0  0  0  0  0  0
  116.2478  154.9143  178.1890 H   0  0  0  0  0  0  0  0  0  0  0  0
  114.3266  154.6525  180.0812 H   0  0  0  0  0  0  0  0  0  0  0  0
  115.4360  153.2641  179.9557 H   0  0  0  0  0  0  0  0  0  0  0  0
  115.2615  155.4063  181.9906 H   0  0  0  0  0  0  0  0  0  0  0  0
  116.1066  153.7792  182.0931 H   0  0  0  0  0  0  0  0  0  0  0  0
  1  2  1  0
  2  3  1  0
  2  4  1  0
  4  5  1  1
  4  6  1  0
  6  7  1  0
  7  8  1  0
  8  9  1  0
  8 10  2  0
  6 11  1  0
 11 12  1  0
 12 13  1  0
 13 14  1  0
 12  2  1  0
 14  4  1  0
  1 15  1  0
  1 16  1  0
  1 17  1  0
  3 18  1  0
  3 19  1  0
  3 20  1  0
  5 21  1  0
  5 22  1  0
  5 23  1  0
  6 24  1  6
  9 25  1  0
  9 26  1  0
  9 27  1  0
 11 28  1  0
 11 29  1  0
 12 30  1  6
 13 31  1  0
 13 32  1  0
 14 33  1  0
 14 34  1  0
M  END
>  <docking_score>  (3) 
-4.1870000000000003

$$$$
