
     RDKit          3D

 35 36  0  0  0  0  0  0  0  0999 V2000
  115.0663  153.6966  181.5426 O   0  0  0  0  0  0  0  0  0  0  0  0
  115.5207  154.8197  181.1097 C   0  0  0  0  0  0  0  0  0  0  0  0
  116.6540  154.7574  180.2242 C   0  0  0  0  0  0  0  0  0  0  0  0
  116.4050  154.5371  178.8469 C   0  0  0  0  0  0  0  0  0  0  0  0
  115.1063  154.3893  178.3880 O   0  0  0  0  0  0  0  0  0  0  0  0
  114.7822  154.0989  177.0576 C   0  0  0  0  0  0  0  0  0  0  0  0
  117.4206  154.4639  177.9365 C   0  0  0  0  0  0  0  0  0  0  0  0
  118.7295  154.6092  178.3741 C   0  0  0  0  0  0  0  0  0  0  0  0
  119.7524  154.5342  177.4498 O   0  0  0  0  0  0  0  0  0  0  0  0
  118.9657  154.8225  179.7101 C   0  0  0  0  0  0  0  0  0  0  0  0
  117.9435  154.9019  180.6643 C   0  0  0  0  0  0  0  0  0  0  0  0
  118.2628  155.1189  181.9904 O   0  0  0  0  0  0  0  0  0  0  0  0
  114.8893  156.0503  181.5215 C   0  0  0  0  0  0  0  0  0  0  0  0
  115.3231  157.2327  181.0247 C   0  0  0  0  0  0  0  0  0  0  0  0
  114.7568  158.5152  181.3751 C   0  0  0  0  0  0  0  0  0  0  0  0
  114.8273  159.5235  180.4321 C   0  0  0  0  0  0  0  0  0  0  0  0
  114.3327  160.7793  180.6337 C   0  0  0  0  0  0  0  0  0  0  0  0
  113.7332  161.0456  181.8449 C   0  0  0  0  0  0  0  0  0  0  0  0
  113.2413  162.3339  182.0152 O   0  0  0  0  0  0  0  0  0  0  0  0
  113.6262  160.0952  182.8298 C   0  0  0  0  0  0  0  0  0  0  0  0
  114.1553  158.8247  182.5581 C   0  0  0  0  0  0  0  0  0  0  0  0
  115.6647  154.1447  176.3909 H   0  0  0  0  0  0  0  0  0  0  0  0
  114.0212  154.8497  176.7034 H   0  0  0  0  0  0  0  0  0  0  0  0
  114.3016  153.0900  177.0274 H   0  0  0  0  0  0  0  0  0  0  0  0
  117.1849  154.2945  176.8947 H   0  0  0  0  0  0  0  0  0  0  0  0
  120.4320  155.2615  177.2997 H   0  0  0  0  0  0  0  0  0  0  0  0
  119.9912  154.9405  180.0809 H   0  0  0  0  0  0  0  0  0  0  0  0
  118.7414  155.9143  182.3371 H   0  0  0  0  0  0  0  0  0  0  0  0
  114.0757  156.1776  182.2059 H   0  0  0  0  0  0  0  0  0  0  0  0
  116.1485  157.1489  180.3255 H   0  0  0  0  0  0  0  0  0  0  0  0
  115.3009  159.3210  179.4688 H   0  0  0  0  0  0  0  0  0  0  0  0
  114.4116  161.5425  179.8596 H   0  0  0  0  0  0  0  0  0  0  0  0
  113.2516  162.9791  181.2443 H   0  0  0  0  0  0  0  0  0  0  0  0
  113.1535  160.3368  183.7605 H   0  0  0  0  0  0  0  0  0  0  0  0
  114.0700  158.0936  183.3225 H   0  0  0  0  0  0  0  0  0  0  0  0
  1  2  2  0
  2  3  1  0
  3  4  2  0
  4  5  1  0
  5  6  1  0
  4  7  1  0
  7  8  2  0
  8  9  1  0
  8 10  1  0
 10 11  2  0
 11 12  1  0
  2 13  1  0
 13 14  2  0
 14 15  1  0
 15 16  2  0
 16 17  1  0
 17 18  2  0
 18 19  1  0
 18 20  1  0
 20 21  2  0
 11  3  1  0
 21 15  1  0
  6 22  1  0
  6 23  1  0
  6 24  1  0
  7 25  1  0
  9 26  1  0
 10 27  1  0
 12 28  1  0
 13 29  1  0
 14 30  1  0
 16 31  1  0
 17 32  1  0
 19 33  1  0
 20 34  1  0
 21 35  1  0
M  END
>  <docking_score>  (1) 
-5.1360000000000001

$$$$

     RDKit          3D

 35 36  0  0  0  0  0  0  0  0999 V2000
  138.5958  150.2924  198.0199 O   0  0  0  0  0  0  0  0  0  0  0  0
  137.4846  150.6188  197.4597 C   0  0  0  0  0  0  0  0  0  0  0  0
  136.7161  151.6500  198.1065 C   0  0  0  0  0  0  0  0  0  0  0  0
  135.6787  151.2486  198.9842 C   0  0  0  0  0  0  0  0  0  0  0  0
  135.4287  149.9031  199.1991 O   0  0  0  0  0  0  0  0  0  0  0  0
  135.6936  149.2485  200.4077 C   0  0  0  0  0  0  0  0  0  0  0  0
  134.9003  152.1597  199.6397 C   0  0  0  0  0  0  0  0  0  0  0  0
  135.1331  153.5130  199.4392 C   0  0  0  0  0  0  0  0  0  0  0  0
  134.3434  154.4298  200.1040 O   0  0  0  0  0  0  0  0  0  0  0  0
  136.1397  153.8970  198.5874 C   0  0  0  0  0  0  0  0  0  0  0  0
  136.9523  152.9842  197.9031 C   0  0  0  0  0  0  0  0  0  0  0  0
  137.9448  153.4500  197.0632 O   0  0  0  0  0  0  0  0  0  0  0  0
  137.0761  149.9540  196.2457 C   0  0  0  0  0  0  0  0  0  0  0  0
  136.9836  150.6527  195.0897 C   0  0  0  0  0  0  0  0  0  0  0  0
  136.5844  150.0778  193.8255 C   0  0  0  0  0  0  0  0  0  0  0  0
  137.0149  150.7083  192.6730 C   0  0  0  0  0  0  0  0  0  0  0  0
  136.7104  150.2710  191.4167 C   0  0  0  0  0  0  0  0  0  0  0  0
  135.9322  149.1403  191.3022 C   0  0  0  0  0  0  0  0  0  0  0  0
  135.6422  148.7243  190.0086 O   0  0  0  0  0  0  0  0  0  0  0  0
  135.4678  148.4608  192.4010 C   0  0  0  0  0  0  0  0  0  0  0  0
  135.8171  148.9633  193.6633 C   0  0  0  0  0  0  0  0  0  0  0  0
  136.1806  148.2660  200.2552 H   0  0  0  0  0  0  0  0  0  0  0  0
  134.7189  149.0895  200.9489 H   0  0  0  0  0  0  0  0  0  0  0  0
  136.3251  149.9217  201.0385 H   0  0  0  0  0  0  0  0  0  0  0  0
  134.1195  151.8089  200.3006 H   0  0  0  0  0  0  0  0  0  0  0  0
  134.7031  155.1643  200.6909 H   0  0  0  0  0  0  0  0  0  0  0  0
  136.3436  154.9604  198.4122 H   0  0  0  0  0  0  0  0  0  0  0  0
  138.7417  153.9622  197.3540 H   0  0  0  0  0  0  0  0  0  0  0  0
  136.8182  148.9233  196.1126 H   0  0  0  0  0  0  0  0  0  0  0  0
  137.2370  151.7038  195.1804 H   0  0  0  0  0  0  0  0  0  0  0  0
  137.6325  151.6055  192.7546 H   0  0  0  0  0  0  0  0  0  0  0  0
  137.0731  150.8017  190.5365 H   0  0  0  0  0  0  0  0  0  0  0  0
  136.3731  148.3523  189.4272 H   0  0  0  0  0  0  0  0  0  0  0  0
  134.8644  147.5843  192.2753 H   0  0  0  0  0  0  0  0  0  0  0  0
  135.4558  148.4346  194.5094 H   0  0  0  0  0  0  0  0  0  0  0  0
  1  2  2  0
  2  3  1  0
  3  4  2  0
  4  5  1  0
  5  6  1  0
  4  7  1  0
  7  8  2  0
  8  9  1  0
  8 10  1  0
 10 11  2  0
 11 12  1  0
  2 13  1  0
 13 14  2  0
 14 15  1  0
 15 16  2  0
 16 17  1  0
 17 18  2  0
 18 19  1  0
 18 20  1  0
 20 21  2  0
 11  3  1  0
 21 15  1  0
  6 22  1  0
  6 23  1  0
  6 24  1  0
  7 25  1  0
  9 26  1  0
 10 27  1  0
 12 28  1  0
 13 29  1  0
 14 30  1  0
 16 31  1  0
 17 32  1  0
 19 33  1  0
 20 34  1  0
 21 35  1  0
M  END
>  <docking_score>  (2) 
-4.5190000000000001

$$$$

     RDKit          3D

 35 36  0  0  0  0  0  0  0  0999 V2000
  139.0213  151.2394  198.7529 O   0  0  0  0  0  0  0  0  0  0  0  0
  138.6121  151.7207  197.6321 C   0  0  0  0  0  0  0  0  0  0  0  0
  137.2702  151.3807  197.2370 C   0  0  0  0  0  0  0  0  0  0  0  0
  136.2068  152.1337  197.7934 C   0  0  0  0  0  0  0  0  0  0  0  0
  136.4712  153.1593  198.6863 O   0  0  0  0  0  0  0  0  0  0  0  0
  135.6751  154.3040  198.8104 C   0  0  0  0  0  0  0  0  0  0  0  0
  134.9033  151.8794  197.4743 C   0  0  0  0  0  0  0  0  0  0  0  0
  134.6153  150.8564  196.5818 C   0  0  0  0  0  0  0  0  0  0  0  0
  133.2961  150.6034  196.2626 O   0  0  0  0  0  0  0  0  0  0  0  0
  135.6496  150.1293  196.0453 C   0  0  0  0  0  0  0  0  0  0  0  0
  136.9943  150.3690  196.3552 C   0  0  0  0  0  0  0  0  0  0  0  0
  137.9777  149.5932  195.7732 O   0  0  0  0  0  0  0  0  0  0  0  0
  139.4934  152.5537  196.8499 C   0  0  0  0  0  0  0  0  0  0  0  0
  139.1568  153.8393  196.5911 C   0  0  0  0  0  0  0  0  0  0  0  0
  139.9710  154.7502  195.8193 C   0  0  0  0  0  0  0  0  0  0  0  0
  140.7608  155.6465  196.5149 C   0  0  0  0  0  0  0  0  0  0  0  0
  141.5754  156.5594  195.9104 C   0  0  0  0  0  0  0  0  0  0  0  0
  141.6047  156.5802  194.5335 C   0  0  0  0  0  0  0  0  0  0  0  0
  142.4449  157.5221  193.9525 O   0  0  0  0  0  0  0  0  0  0  0  0
  140.8485  155.7212  193.7753 C   0  0  0  0  0  0  0  0  0  0  0  0
  140.0326  154.8076  194.4592 C   0  0  0  0  0  0  0  0  0  0  0  0
  134.5959  154.0617  198.8578 H   0  0  0  0  0  0  0  0  0  0  0  0
  135.8590  154.9655  197.9177 H   0  0  0  0  0  0  0  0  0  0  0  0
  136.0066  154.8631  199.7199 H   0  0  0  0  0  0  0  0  0  0  0  0
  134.1230  152.4792  197.9226 H   0  0  0  0  0  0  0  0  0  0  0  0
  132.8781  149.6878  196.2742 H   0  0  0  0  0  0  0  0  0  0  0  0
  135.4481  149.3158  195.3378 H   0  0  0  0  0  0  0  0  0  0  0  0
  138.8572  149.9285  195.4632 H   0  0  0  0  0  0  0  0  0  0  0  0
  140.4358  152.2909  196.4145 H   0  0  0  0  0  0  0  0  0  0  0  0
  138.2067  154.1474  197.0150 H   0  0  0  0  0  0  0  0  0  0  0  0
  140.7437  155.6369  197.6071 H   0  0  0  0  0  0  0  0  0  0  0  0
  142.1806  157.2468  196.5013 H   0  0  0  0  0  0  0  0  0  0  0  0
  142.7030  157.4329  192.9850 H   0  0  0  0  0  0  0  0  0  0  0  0
  140.8957  155.7648  192.7057 H   0  0  0  0  0  0  0  0  0  0  0  0
  139.4500  154.1457  193.8687 H   0  0  0  0  0  0  0  0  0  0  0  0
  1  2  2  0
  2  3  1  0
  3  4  2  0
  4  5  1  0
  5  6  1  0
  4  7  1  0
  7  8  2  0
  8  9  1  0
  8 10  1  0
 10 11  2  0
 11 12  1  0
  2 13  1  0
 13 14  2  0
 14 15  1  0
 15 16  2  0
 16 17  1  0
 17 18  2  0
 18 19  1  0
 18 20  1  0
 20 21  2  0
 11  3  1  0
 21 15  1  0
  6 22  1  0
  6 23  1  0
  6 24  1  0
  7 25  1  0
  9 26  1  0
 10 27  1  0
 12 28  1  0
 13 29  1  0
 14 30  1  0
 16 31  1  0
 17 32  1  0
 19 33  1  0
 20 34  1  0
 21 35  1  0
M  END
>  <docking_score>  (3) 
-4.4020000000000001

$$$$
