
     RDKit          3D

 82 85  0  0  0  0  0  0  0  0999 V2000
  138.6584  151.4432  192.1562 O   0  0  0  0  0  0  0  0  0  0  0  0
  137.8366  150.6473  191.4006 C   0  0  1  0  0  0  0  0  0  0  0  0
  138.6539  150.1631  190.2030 C   0  0  1  0  0  0  0  0  0  0  0  0
  139.4512  151.2247  189.7725 O   0  0  0  0  0  0  0  0  0  0  0  0
  139.4603  148.9481  190.5498 C   0  0  0  0  0  0  0  0  0  0  0  0
  139.7776  148.9433  192.0229 C   0  0  2  0  0  0  0  0  0  0  0  0
  140.6783  147.7757  192.3326 C   0  0  0  0  0  0  0  0  0  0  0  0
  141.1649  147.5157  193.6182 O   0  0  0  0  0  0  0  0  0  0  0  0
  140.9110  148.1680  194.8347 C   0  0  0  0  0  0  0  0  0  0  0  0
  139.4032  148.1875  195.1525 C   0  0  2  0  0  0  0  0  0  0  0  0
  138.7179  149.1961  194.2759 C   0  0  2  0  0  0  0  0  0  0  0  0
  137.4171  149.6886  194.8295 C   0  0  0  0  0  0  0  0  0  0  0  0
  137.4941  150.0331  196.2929 C   0  0  0  0  0  0  0  0  0  0  0  0
  137.8996  148.8236  197.0867 C   0  0  1  0  0  0  0  0  0  0  0  0
  137.0765  147.6139  196.8601 C   0  0  0  0  0  0  0  0  0  0  0  0
  139.3048  148.5517  196.5696 C   0  0  1  0  0  0  0  0  0  0  0  0
  139.9064  147.6089  197.5472 C   0  0  0  0  0  0  0  0  0  0  0  0
  139.3015  148.0653  198.8508 C   0  0  0  0  0  0  0  0  0  0  0  0
  138.2310  149.1005  198.5131 C   0  0  2  0  0  0  0  0  0  0  0  0
  137.1578  148.9985  199.5221 C   0  0  2  0  0  0  0  0  0  0  0  0
  136.6932  147.6564  199.9106 C   0  0  0  0  0  0  0  0  0  0  0  0
  136.0590  149.9584  199.1134 C   0  0  1  0  0  0  0  0  0  0  0  0
  134.8200  149.3175  199.0715 O   0  0  0  0  0  0  0  0  0  0  0  0
  135.8883  151.1396  200.0109 C   0  0  2  0  0  0  0  0  0  0  0  0
  135.2853  150.6436  201.1833 O   0  0  0  0  0  0  0  0  0  0  0  0
  134.9071  152.1604  199.4831 C   0  0  2  0  0  0  0  0  0  0  0  0
  135.6591  153.1318  198.5991 C   0  0  0  0  0  0  0  0  0  0  0  0
  135.3383  154.5623  198.8850 C   0  0  0  0  0  0  0  0  0  0  0  0
  135.3981  152.8661  197.1317 C   0  0  0  0  0  0  0  0  0  0  0  0
  134.3204  152.9664  200.6219 C   0  0  0  0  0  0  0  0  0  0  0  0
  140.9930  147.0220  191.3982 O   0  0  0  0  0  0  0  0  0  0  0  0
  138.5222  148.7163  192.8605 C   0  0  2  0  0  0  0  0  0  0  0  0
  138.2258  147.2111  192.8607 C   0  0  0  0  0  0  0  0  0  0  0  0
  137.3926  149.3793  192.1402 C   0  0  0  0  0  0  0  0  0  0  0  0
  139.4461  151.7808  191.6622 H   0  0  0  0  0  0  0  0  0  0  0  0
  136.9390  151.2027  191.0927 H   0  0  0  0  0  0  0  0  0  0  0  0
  137.9321  149.9351  189.3977 H   0  0  0  0  0  0  0  0  0  0  0  0
  139.5844  151.0974  188.8010 H   0  0  0  0  0  0  0  0  0  0  0  0
  140.4039  148.9755  190.0015 H   0  0  0  0  0  0  0  0  0  0  0  0
  138.8656  148.0479  190.3383 H   0  0  0  0  0  0  0  0  0  0  0  0
  140.3419  149.8366  192.3523 H   0  0  0  0  0  0  0  0  0  0  0  0
  141.3703  147.5540  195.6368 H   0  0  0  0  0  0  0  0  0  0  0  0
  141.3396  149.1734  194.8917 H   0  0  0  0  0  0  0  0  0  0  0  0
  139.0441  147.1935  194.8710 H   0  0  0  0  0  0  0  0  0  0  0  0
  139.4210  150.0776  194.2052 H   0  0  0  0  0  0  0  0  0  0  0  0
  137.1451  150.6423  194.3043 H   0  0  0  0  0  0  0  0  0  0  0  0
  136.6427  148.9125  194.6610 H   0  0  0  0  0  0  0  0  0  0  0  0
  136.5687  150.5074  196.5880 H   0  0  0  0  0  0  0  0  0  0  0  0
  138.3032  150.7876  196.4029 H   0  0  0  0  0  0  0  0  0  0  0  0
  136.7253  147.0891  197.7732 H   0  0  0  0  0  0  0  0  0  0  0  0
  137.5827  146.8295  196.2465 H   0  0  0  0  0  0  0  0  0  0  0  0
  136.1163  147.9411  196.3610 H   0  0  0  0  0  0  0  0  0  0  0  0
  139.8454  149.5380  196.7018 H   0  0  0  0  0  0  0  0  0  0  0  0
  141.0103  147.8329  197.6261 H   0  0  0  0  0  0  0  0  0  0  0  0
  139.7755  146.5500  197.3349 H   0  0  0  0  0  0  0  0  0  0  0  0
  138.7346  147.1803  199.2563 H   0  0  0  0  0  0  0  0  0  0  0  0
  140.0350  148.4303  199.5689 H   0  0  0  0  0  0  0  0  0  0  0  0
  138.7570  150.0789  198.5240 H   0  0  0  0  0  0  0  0  0  0  0  0
  137.5698  149.4488  200.4810 H   0  0  0  0  0  0  0  0  0  0  0  0
  136.6950  146.9061  199.0689 H   0  0  0  0  0  0  0  0  0  0  0  0
  135.6489  147.6226  200.2963 H   0  0  0  0  0  0  0  0  0  0  0  0
  137.2828  147.1619  200.7132 H   0  0  0  0  0  0  0  0  0  0  0  0
  136.2181  150.3525  198.0873 H   0  0  0  0  0  0  0  0  0  0  0  0
  134.2992  149.5503  198.2935 H   0  0  0  0  0  0  0  0  0  0  0  0
  136.8237  151.5940  200.3699 H   0  0  0  0  0  0  0  0  0  0  0  0
  135.9247  150.2520  201.8026 H   0  0  0  0  0  0  0  0  0  0  0  0
  134.0878  151.7414  198.9090 H   0  0  0  0  0  0  0  0  0  0  0  0
  136.7431  152.9562  198.7665 H   0  0  0  0  0  0  0  0  0  0  0  0
  136.0789  155.0681  199.5294 H   0  0  0  0  0  0  0  0  0  0  0  0
  134.3749  154.5722  199.4737 H   0  0  0  0  0  0  0  0  0  0  0  0
  135.1084  155.1508  197.9678 H   0  0  0  0  0  0  0  0  0  0  0  0
  134.4754  152.2596  196.9754 H   0  0  0  0  0  0  0  0  0  0  0  0
  136.2816  152.3849  196.6678 H   0  0  0  0  0  0  0  0  0  0  0  0
  135.1775  153.8574  196.6623 H   0  0  0  0  0  0  0  0  0  0  0  0
  133.4567  152.3871  201.0134 H   0  0  0  0  0  0  0  0  0  0  0  0
  133.9018  153.9375  200.2789 H   0  0  0  0  0  0  0  0  0  0  0  0
  135.0249  153.0858  201.4700 H   0  0  0  0  0  0  0  0  0  0  0  0
  138.3857  146.7906  193.8535 H   0  0  0  0  0  0  0  0  0  0  0  0
  138.7027  146.6895  192.0333 H   0  0  0  0  0  0  0  0  0  0  0  0
  137.1142  147.1425  192.6719 H   0  0  0  0  0  0  0  0  0  0  0  0
  137.0918  148.6757  191.3063 H   0  0  0  0  0  0  0  0  0  0  0  0
  136.4866  149.5354  192.7265 H   0  0  0  0  0  0  0  0  0  0  0  0
  1  2  1  0
  2  3  1  0
  3  4  1  0
  3  5  1  0
  5  6  1  0
  6  7  1  0
  7  8  1  0
  8  9  1  0
  9 10  1  0
 10 11  1  0
 11 12  1  0
 12 13  1  0
 13 14  1  0
 14 15  1  1
 14 16  1  0
 16 17  1  0
 17 18  1  0
 18 19  1  0
 19 20  1  0
 20 21  1  0
 20 22  1  0
 22 23  1  0
 22 24  1  0
 24 25  1  0
 24 26  1  0
 26 27  1  0
 27 28  1  0
 27 29  1  0
 26 30  1  0
  7 31  2  0
  6 32  1  0
 32 33  1  1
 32 34  1  0
 34  2  1  0
 16 10  1  0
 32 11  1  0
 19 14  1  0
  1 35  1  0
  2 36  1  6
  3 37  1  6
  4 38  1  0
  5 39  1  0
  5 40  1  0
  6 41  1  1
  9 42  1  0
  9 43  1  0
 10 44  1  1
 11 45  1  6
 12 46  1  0
 12 47  1  0
 13 48  1  0
 13 49  1  0
 15 50  1  0
 15 51  1  0
 15 52  1  0
 16 53  1  6
 17 54  1  0
 17 55  1  0
 18 56  1  0
 18 57  1  0
 19 58  1  6
 20 59  1  1
 21 60  1  0
 21 61  1  0
 21 62  1  0
 22 63  1  6
 23 64  1  0
 24 65  1  1
 25 66  1  0
 26 67  1  6
 27 68  1  0
 28 69  1  0
 28 70  1  0
 28 71  1  0
 29 72  1  0
 29 73  1  0
 29 74  1  0
 30 75  1  0
 30 76  1  0
 30 77  1  0
 33 78  1  0
 33 79  1  0
 33 80  1  0
 34 81  1  0
 34 82  1  0
M  END
>  <docking_score>  (1) 
-4.2599999999999998

$$$$

     RDKit          3D

 82 85  0  0  0  0  0  0  0  0999 V2000
  135.2527  149.4317  199.8008 O   0  0  0  0  0  0  0  0  0  0  0  0
  134.1007  150.1250  199.5325 C   0  0  1  0  0  0  0  0  0  0  0  0
  134.1455  151.4111  200.3575 C   0  0  1  0  0  0  0  0  0  0  0  0
  134.6871  151.0995  201.6055 O   0  0  0  0  0  0  0  0  0  0  0  0
  134.9188  152.4839  199.6518 C   0  0  0  0  0  0  0  0  0  0  0  0
  135.9471  151.8638  198.7412 C   0  0  2  0  0  0  0  0  0  0  0  0
  136.7856  152.9536  198.1249 C   0  0  0  0  0  0  0  0  0  0  0  0
  137.8423  152.6900  197.2468 O   0  0  0  0  0  0  0  0  0  0  0  0
  138.3013  151.4741  196.7170 C   0  0  0  0  0  0  0  0  0  0  0  0
  137.1784  150.7351  195.9635 C   0  0  2  0  0  0  0  0  0  0  0  0
  136.2202  150.1354  196.9521 C   0  0  2  0  0  0  0  0  0  0  0  0
  135.4318  148.9866  196.4045 C   0  0  0  0  0  0  0  0  0  0  0  0
  136.2768  148.0097  195.6313 C   0  0  0  0  0  0  0  0  0  0  0  0
  136.9380  148.7029  194.4739 C   0  0  1  0  0  0  0  0  0  0  0  0
  136.0250  149.4513  193.5802 C   0  0  0  0  0  0  0  0  0  0  0  0
  137.8513  149.7006  195.1714 C   0  0  1  0  0  0  0  0  0  0  0  0
  138.7952  150.1669  194.1234 C   0  0  0  0  0  0  0  0  0  0  0  0
  138.9841  148.9285  193.2843 C   0  0  0  0  0  0  0  0  0  0  0  0
  137.9760  147.8924  193.7764 C   0  0  2  0  0  0  0  0  0  0  0  0
  137.5704  147.0620  192.6246 C   0  0  2  0  0  0  0  0  0  0  0  0
  136.1391  146.9939  192.2858 C   0  0  0  0  0  0  0  0  0  0  0  0
  138.2538  145.7178  192.7722 C   0  0  1  0  0  0  0  0  0  0  0  0
  137.3606  144.6705  192.5419 O   0  0  0  0  0  0  0  0  0  0  0  0
  139.4076  145.4932  191.8511 C   0  0  2  0  0  0  0  0  0  0  0  0
  139.3745  144.1231  191.5258 O   0  0  0  0  0  0  0  0  0  0  0  0
  140.7524  145.6937  192.5103 C   0  0  2  0  0  0  0  0  0  0  0  0
  141.7419  146.1307  191.4517 C   0  0  0  0  0  0  0  0  0  0  0  0
  143.1267  146.3203  191.9783 C   0  0  0  0  0  0  0  0  0  0  0  0
  141.3055  147.4141  190.7776 C   0  0  0  0  0  0  0  0  0  0  0  0
  141.2630  144.3859  193.0757 C   0  0  0  0  0  0  0  0  0  0  0  0
  136.5156  154.1289  198.4177 O   0  0  0  0  0  0  0  0  0  0  0  0
  135.2881  151.1491  197.5648 C   0  0  2  0  0  0  0  0  0  0  0  0
  134.9188  152.2102  196.5202 C   0  0  0  0  0  0  0  0  0  0  0  0
  134.0039  150.5736  198.0692 C   0  0  0  0  0  0  0  0  0  0  0  0
  136.0466  149.7851  199.3282 H   0  0  0  0  0  0  0  0  0  0  0  0
  133.2186  149.5122  199.7674 H   0  0  0  0  0  0  0  0  0  0  0  0
  133.0973  151.7247  200.5133 H   0  0  0  0  0  0  0  0  0  0  0  0
  133.9273  150.8375  202.1816 H   0  0  0  0  0  0  0  0  0  0  0  0
  135.4449  153.0915  200.3904 H   0  0  0  0  0  0  0  0  0  0  0  0
  134.2326  153.0691  199.0229 H   0  0  0  0  0  0  0  0  0  0  0  0
  136.6674  151.2132  199.2729 H   0  0  0  0  0  0  0  0  0  0  0  0
  139.0587  151.7197  195.9441 H   0  0  0  0  0  0  0  0  0  0  0  0
  138.7744  150.8228  197.4585 H   0  0  0  0  0  0  0  0  0  0  0  0
  136.6501  151.5167  195.4101 H   0  0  0  0  0  0  0  0  0  0  0  0
  136.8524  149.7475  197.8044 H   0  0  0  0  0  0  0  0  0  0  0  0
  135.0030  148.4070  197.2644 H   0  0  0  0  0  0  0  0  0  0  0  0
  134.6238  149.3863  195.7581 H   0  0  0  0  0  0  0  0  0  0  0  0
  135.6748  147.1457  195.3873 H   0  0  0  0  0  0  0  0  0  0  0  0
  137.0827  147.6692  196.3172 H   0  0  0  0  0  0  0  0  0  0  0  0
  135.0768  148.9377  193.3164 H   0  0  0  0  0  0  0  0  0  0  0  0
  136.4836  149.7418  192.6038 H   0  0  0  0  0  0  0  0  0  0  0  0
  135.6776  150.3715  194.1377 H   0  0  0  0  0  0  0  0  0  0  0  0
  138.4572  149.0681  195.8893 H   0  0  0  0  0  0  0  0  0  0  0  0
  139.7959  150.3654  194.6073 H   0  0  0  0  0  0  0  0  0  0  0  0
  138.4923  151.0494  193.5640 H   0  0  0  0  0  0  0  0  0  0  0  0
  138.6401  149.2012  192.2470 H   0  0  0  0  0  0  0  0  0  0  0  0
  140.0081  148.5565  193.2785 H   0  0  0  0  0  0  0  0  0  0  0  0
  138.5065  147.3217  194.5681 H   0  0  0  0  0  0  0  0  0  0  0  0
  138.0617  147.5179  191.7066 H   0  0  0  0  0  0  0  0  0  0  0  0
  135.9104  146.3745  191.3718 H   0  0  0  0  0  0  0  0  0  0  0  0
  135.6691  147.9793  192.0650 H   0  0  0  0  0  0  0  0  0  0  0  0
  135.4828  146.5637  193.0736 H   0  0  0  0  0  0  0  0  0  0  0  0
  138.6293  145.5588  193.8052 H   0  0  0  0  0  0  0  0  0  0  0  0
  137.7748  143.9032  192.1293 H   0  0  0  0  0  0  0  0  0  0  0  0
  139.3325  145.9957  190.8753 H   0  0  0  0  0  0  0  0  0  0  0  0
  139.6098  143.9473  190.5988 H   0  0  0  0  0  0  0  0  0  0  0  0
  140.7575  146.4304  193.3064 H   0  0  0  0  0  0  0  0  0  0  0  0
  141.7501  145.3454  190.6661 H   0  0  0  0  0  0  0  0  0  0  0  0
  143.4321  147.3778  192.0670 H   0  0  0  0  0  0  0  0  0  0  0  0
  143.8315  145.8691  191.2204 H   0  0  0  0  0  0  0  0  0  0  0  0
  143.3215  145.7471  192.9132 H   0  0  0  0  0  0  0  0  0  0  0  0
  141.8712  147.6034  189.8353 H   0  0  0  0  0  0  0  0  0  0  0  0
  141.3959  148.2650  191.4813 H   0  0  0  0  0  0  0  0  0  0  0  0
  140.2455  147.2602  190.4544 H   0  0  0  0  0  0  0  0  0  0  0  0
  140.3767  143.7316  193.2216 H   0  0  0  0  0  0  0  0  0  0  0  0
  141.7152  144.5106  194.0835 H   0  0  0  0  0  0  0  0  0  0  0  0
  141.9341  143.8488  192.3748 H   0  0  0  0  0  0  0  0  0  0  0  0
  135.7730  152.8544  196.3120 H   0  0  0  0  0  0  0  0  0  0  0  0
  133.9798  152.7118  196.7455 H   0  0  0  0  0  0  0  0  0  0  0  0
  134.7375  151.6223  195.5729 H   0  0  0  0  0  0  0  0  0  0  0  0
  133.2639  151.4293  198.1008 H   0  0  0  0  0  0  0  0  0  0  0  0
  133.5436  149.8179  197.4319 H   0  0  0  0  0  0  0  0  0  0  0  0
  1  2  1  0
  2  3  1  0
  3  4  1  0
  3  5  1  0
  5  6  1  0
  6  7  1  0
  7  8  1  0
  8  9  1  0
  9 10  1  0
 10 11  1  0
 11 12  1  0
 12 13  1  0
 13 14  1  0
 14 15  1  6
 14 16  1  0
 16 17  1  0
 17 18  1  0
 18 19  1  0
 19 20  1  0
 20 21  1  0
 20 22  1  0
 22 23  1  0
 22 24  1  0
 24 25  1  0
 24 26  1  0
 26 27  1  0
 27 28  1  0
 27 29  1  0
 26 30  1  0
  7 31  2  0
  6 32  1  0
 32 33  1  6
 32 34  1  0
 34  2  1  0
 16 10  1  0
 32 11  1  0
 19 14  1  0
  1 35  1  0
  2 36  1  1
  3 37  1  1
  4 38  1  0
  5 39  1  0
  5 40  1  0
  6 41  1  1
  9 42  1  0
  9 43  1  0
 10 44  1  6
 11 45  1  1
 12 46  1  0
 12 47  1  0
 13 48  1  0
 13 49  1  0
 15 50  1  0
 15 51  1  0
 15 52  1  0
 16 53  1  1
 17 54  1  0
 17 55  1  0
 18 56  1  0
 18 57  1  0
 19 58  1  1
 20 59  1  6
 21 60  1  0
 21 61  1  0
 21 62  1  0
 22 63  1  1
 23 64  1  0
 24 65  1  6
 25 66  1  0
 26 67  1  1
 27 68  1  0
 28 69  1  0
 28 70  1  0
 28 71  1  0
 29 72  1  0
 29 73  1  0
 29 74  1  0
 30 75  1  0
 30 76  1  0
 30 77  1  0
 33 78  1  0
 33 79  1  0
 33 80  1  0
 34 81  1  0
 34 82  1  0
M  END
>  <docking_score>  (2) 
-4.1669999999999998

$$$$

     RDKit          3D

 82 85  0  0  0  0  0  0  0  0999 V2000
  134.8644  152.6961  197.2025 O   0  0  0  0  0  0  0  0  0  0  0  0
  135.9888  153.2200  197.7865 C   0  0  1  0  0  0  0  0  0  0  0  0
  135.8383  153.0404  199.2971 C   0  0  1  0  0  0  0  0  0  0  0  0
  134.5054  153.2914  199.6264 O   0  0  0  0  0  0  0  0  0  0  0  0
  136.2860  151.6772  199.7305 C   0  0  0  0  0  0  0  0  0  0  0  0
  136.1118  150.6943  198.6015 C   0  0  2  0  0  0  0  0  0  0  0  0
  136.4630  149.3122  199.0883 C   0  0  0  0  0  0  0  0  0  0  0  0
  136.3792  148.1788  198.2726 O   0  0  0  0  0  0  0  0  0  0  0  0
  136.0465  148.0598  196.9143 C   0  0  0  0  0  0  0  0  0  0  0  0
  136.9792  148.9150  196.0349 C   0  0  2  0  0  0  0  0  0  0  0  0
  136.6093  150.3641  196.1712 C   0  0  2  0  0  0  0  0  0  0  0  0
  137.0468  151.2077  195.0146 C   0  0  0  0  0  0  0  0  0  0  0  0
  136.7505  150.5756  193.6809 C   0  0  0  0  0  0  0  0  0  0  0  0
  137.4511  149.2510  193.5710 C   0  0  1  0  0  0  0  0  0  0  0  0
  138.9064  149.2815  193.8417 C   0  0  0  0  0  0  0  0  0  0  0  0
  136.7766  148.4350  194.6642 C   0  0  1  0  0  0  0  0  0  0  0  0
  137.1491  147.0241  194.3862 C   0  0  0  0  0  0  0  0  0  0  0  0
  137.1899  146.9914  192.8793 C   0  0  0  0  0  0  0  0  0  0  0  0
  137.0477  148.4319  192.3931 C   0  0  2  0  0  0  0  0  0  0  0  0
  137.8130  148.5716  191.1379 C   0  0  2  0  0  0  0  0  0  0  0  0
  137.0680  148.5990  189.8682 C   0  0  0  0  0  0  0  0  0  0  0  0
  138.9500  147.5713  191.1869 C   0  0  1  0  0  0  0  0  0  0  0  0
  138.6228  146.4026  190.4979 O   0  0  0  0  0  0  0  0  0  0  0  0
  140.2382  148.0528  190.6050 C   0  0  2  0  0  0  0  0  0  0  0  0
  141.1787  147.0380  190.8691 O   0  0  0  0  0  0  0  0  0  0  0  0
  140.7937  149.2742  191.3000 C   0  0  2  0  0  0  0  0  0  0  0  0
  140.5156  150.4836  190.4336 C   0  0  0  0  0  0  0  0  0  0  0  0
  140.5126  150.1763  188.9718 C   0  0  0  0  0  0  0  0  0  0  0  0
  141.5142  151.5925  190.6882 C   0  0  0  0  0  0  0  0  0  0  0  0
  142.2974  149.1666  191.4344 C   0  0  0  0  0  0  0  0  0  0  0  0
  136.8409  149.1899  200.2641 O   0  0  0  0  0  0  0  0  0  0  0  0
  137.0861  150.9793  197.4619 C   0  0  2  0  0  0  0  0  0  0  0  0
  138.4455  150.3824  197.8484 C   0  0  0  0  0  0  0  0  0  0  0  0
  137.2659  152.4621  197.4035 C   0  0  0  0  0  0  0  0  0  0  0  0
  134.0480  153.2303  197.3658 H   0  0  0  0  0  0  0  0  0  0  0  0
  136.1131  154.2755  197.5048 H   0  0  0  0  0  0  0  0  0  0  0  0
  136.4565  153.8233  199.7728 H   0  0  0  0  0  0  0  0  0  0  0  0
  133.9792  153.1241  198.8062 H   0  0  0  0  0  0  0  0  0  0  0  0
  135.6665  151.3449  200.5656 H   0  0  0  0  0  0  0  0  0  0  0  0
  137.3573  151.7102  199.9756 H   0  0  0  0  0  0  0  0  0  0  0  0
  135.0667  150.6165  198.2459 H   0  0  0  0  0  0  0  0  0  0  0  0
  136.2491  147.0095  196.6190 H   0  0  0  0  0  0  0  0  0  0  0  0
  134.9950  148.2741  196.6994 H   0  0  0  0  0  0  0  0  0  0  0  0
  137.9752  148.7772  196.4653 H   0  0  0  0  0  0  0  0  0  0  0  0
  135.4808  150.3956  196.2164 H   0  0  0  0  0  0  0  0  0  0  0  0
  136.4660  152.1677  195.0343 H   0  0  0  0  0  0  0  0  0  0  0  0
  138.1344  151.4044  195.1097 H   0  0  0  0  0  0  0  0  0  0  0  0
  136.9638  151.2927  192.9007 H   0  0  0  0  0  0  0  0  0  0  0  0
  135.6573  150.3747  193.6567 H   0  0  0  0  0  0  0  0  0  0  0  0
  139.2050  149.1384  194.9013 H   0  0  0  0  0  0  0  0  0  0  0  0
  139.4077  150.2267  193.5202 H   0  0  0  0  0  0  0  0  0  0  0  0
  139.3715  148.3946  193.3170 H   0  0  0  0  0  0  0  0  0  0  0  0
  135.6710  148.5250  194.4362 H   0  0  0  0  0  0  0  0  0  0  0  0
  136.2846  146.3616  194.6842 H   0  0  0  0  0  0  0  0  0  0  0  0
  138.0538  146.6629  194.8703 H   0  0  0  0  0  0  0  0  0  0  0  0
  138.2404  146.6924  192.6039 H   0  0  0  0  0  0  0  0  0  0  0  0
  136.4562  146.3185  192.4367 H   0  0  0  0  0  0  0  0  0  0  0  0
  135.9557  148.5907  192.2655 H   0  0  0  0  0  0  0  0  0  0  0  0
  138.3353  149.5799  191.1866 H   0  0  0  0  0  0  0  0  0  0  0  0
  137.6629  148.2488  188.9767 H   0  0  0  0  0  0  0  0  0  0  0  0
  136.7047  149.6079  189.5673 H   0  0  0  0  0  0  0  0  0  0  0  0
  136.1492  147.9732  189.8412 H   0  0  0  0  0  0  0  0  0  0  0  0
  139.1666  147.2457  192.2264 H   0  0  0  0  0  0  0  0  0  0  0  0
  139.3448  146.0707  189.9509 H   0  0  0  0  0  0  0  0  0  0  0  0
  140.2520  148.1436  189.5087 H   0  0  0  0  0  0  0  0  0  0  0  0
  141.3336  146.4561  190.1055 H   0  0  0  0  0  0  0  0  0  0  0  0
  140.3792  149.4583  192.2853 H   0  0  0  0  0  0  0  0  0  0  0  0
  139.5200  150.8775  190.7299 H   0  0  0  0  0  0  0  0  0  0  0  0
  141.5094  150.2308  188.4999 H   0  0  0  0  0  0  0  0  0  0  0  0
  139.8999  150.9797  188.4680 H   0  0  0  0  0  0  0  0  0  0  0  0
  139.9825  149.2283  188.7253 H   0  0  0  0  0  0  0  0  0  0  0  0
  142.4178  151.2242  191.2282 H   0  0  0  0  0  0  0  0  0  0  0  0
  141.0289  152.4256  191.2339 H   0  0  0  0  0  0  0  0  0  0  0  0
  141.8881  151.9213  189.6864 H   0  0  0  0  0  0  0  0  0  0  0  0
  142.5031  148.8231  192.4710 H   0  0  0  0  0  0  0  0  0  0  0  0
  142.8007  150.1531  191.3378 H   0  0  0  0  0  0  0  0  0  0  0  0
  142.7343  148.4015  190.7608 H   0  0  0  0  0  0  0  0  0  0  0  0
  139.1766  150.5549  197.0587 H   0  0  0  0  0  0  0  0  0  0  0  0
  138.3659  149.3619  198.2178 H   0  0  0  0  0  0  0  0  0  0  0  0
  138.7873  151.0049  198.7268 H   0  0  0  0  0  0  0  0  0  0  0  0
  137.9912  152.7264  198.2312 H   0  0  0  0  0  0  0  0  0  0  0  0
  137.7193  152.8463  196.4893 H   0  0  0  0  0  0  0  0  0  0  0  0
  1  2  1  0
  2  3  1  0
  3  4  1  0
  3  5  1  0
  5  6  1  0
  6  7  1  0
  7  8  1  0
  8  9  1  0
  9 10  1  0
 10 11  1  0
 11 12  1  0
 12 13  1  0
 13 14  1  0
 14 15  1  1
 14 16  1  0
 16 17  1  0
 17 18  1  0
 18 19  1  0
 19 20  1  0
 20 21  1  0
 20 22  1  0
 22 23  1  0
 22 24  1  0
 24 25  1  0
 24 26  1  0
 26 27  1  0
 27 28  1  0
 27 29  1  0
 26 30  1  0
  7 31  2  0
  6 32  1  0
 32 33  1  1
 32 34  1  0
 34  2  1  0
 16 10  1  0
 32 11  1  0
 19 14  1  0
  1 35  1  0
  2 36  1  1
  3 37  1  1
  4 38  1  0
  5 39  1  0
  5 40  1  0
  6 41  1  6
  9 42  1  0
  9 43  1  0
 10 44  1  1
 11 45  1  1
 12 46  1  0
 12 47  1  0
 13 48  1  0
 13 49  1  0
 15 50  1  0
 15 51  1  0
 15 52  1  0
 16 53  1  6
 17 54  1  0
 17 55  1  0
 18 56  1  0
 18 57  1  0
 19 58  1  6
 20 59  1  1
 21 60  1  0
 21 61  1  0
 21 62  1  0
 22 63  1  1
 23 64  1  0
 24 65  1  6
 25 66  1  0
 26 67  1  1
 27 68  1  0
 28 69  1  0
 28 70  1  0
 28 71  1  0
 29 72  1  0
 29 73  1  0
 29 74  1  0
 30 75  1  0
 30 76  1  0
 30 77  1  0
 33 78  1  0
 33 79  1  0
 33 80  1  0
 34 81  1  0
 34 82  1  0
M  END
>  <docking_score>  (3) 
-4.0460000000000003

$$$$
