
     RDKit          3D

 41 41  0  0  0  0  0  0  0  0999 V2000
  113.2310  154.2228  178.3212 O   0  0  0  0  0  0  0  0  0  0  0  0
  114.2819  153.6880  178.0024 C   0  0  0  0  0  0  0  0  0  0  0  0
  115.2620  153.4628  179.1104 C   0  0  0  0  0  0  0  0  0  0  0  0
  115.3768  154.6281  180.0304 C   0  0  1  0  0  0  0  0  0  0  0  0
  114.7021  154.3914  181.3577 C   0  0  0  0  0  0  0  0  0  0  0  0
  114.0552  153.0443  181.4472 C   0  0  0  0  0  0  0  0  0  0  0  0
  113.6891  155.4547  181.6929 C   0  0  0  0  0  0  0  0  0  0  0  0
  116.7755  155.1385  180.1782 C   0  0  0  0  0  0  0  0  0  0  0  0
  117.5710  155.7235  179.1378 C   0  0  0  0  0  0  0  0  0  0  0  0
  117.3524  155.2203  177.6881 C   0  0  0  0  0  0  0  0  0  0  0  0
  118.6263  154.3930  177.4827 C   0  0  0  0  0  0  0  0  0  0  0  0
  116.3491  155.4512  176.9070 C   0  0  0  0  0  0  0  0  0  0  0  0
  115.8292  155.1524  175.5305 C   0  0  0  0  0  0  0  0  0  0  0  0
  114.4447  154.4638  175.6470 C   0  0  0  0  0  0  0  0  0  0  0  0
  114.5437  153.2963  176.5941 C   0  0  2  0  0  0  0  0  0  0  0  0
  113.4720  152.2991  176.2009 C   0  0  0  0  0  0  0  0  0  0  0  0
  117.2391  155.0246  181.3077 O   0  0  0  0  0  0  0  0  0  0  0  0
  116.2309  153.0858  178.7305 H   0  0  0  0  0  0  0  0  0  0  0  0
  114.8322  152.6033  179.7058 H   0  0  0  0  0  0  0  0  0  0  0  0
  114.8093  155.4799  179.5503 H   0  0  0  0  0  0  0  0  0  0  0  0
  115.5171  154.4909  182.1330 H   0  0  0  0  0  0  0  0  0  0  0  0
  113.7689  152.6234  180.4628 H   0  0  0  0  0  0  0  0  0  0  0  0
  113.1096  153.1438  182.0351 H   0  0  0  0  0  0  0  0  0  0  0  0
  114.6768  152.2898  181.9860 H   0  0  0  0  0  0  0  0  0  0  0  0
  112.7590  155.0782  182.1157 H   0  0  0  0  0  0  0  0  0  0  0  0
  114.1712  156.1137  182.4663 H   0  0  0  0  0  0  0  0  0  0  0  0
  113.5198  156.1152  180.8088 H   0  0  0  0  0  0  0  0  0  0  0  0
  118.6602  155.4550  179.3933 H   0  0  0  0  0  0  0  0  0  0  0  0
  117.6105  156.8139  179.2509 H   0  0  0  0  0  0  0  0  0  0  0  0
  118.6476  153.3909  177.2354 H   0  0  0  0  0  0  0  0  0  0  0  0
  119.2150  154.9557  176.6873 H   0  0  0  0  0  0  0  0  0  0  0  0
  119.3015  154.4996  178.3976 H   0  0  0  0  0  0  0  0  0  0  0  0
  115.4069  156.1023  177.2276 H   0  0  0  0  0  0  0  0  0  0  0  0
  115.6542  156.1508  174.9920 H   0  0  0  0  0  0  0  0  0  0  0  0
  116.3581  154.5807  174.8146 H   0  0  0  0  0  0  0  0  0  0  0  0
  113.6812  155.1788  175.9658 H   0  0  0  0  0  0  0  0  0  0  0  0
  114.1831  154.0915  174.6380 H   0  0  0  0  0  0  0  0  0  0  0  0
  115.5089  152.7741  176.5299 H   0  0  0  0  0  0  0  0  0  0  0  0
  113.2347  151.5874  176.9980 H   0  0  0  0  0  0  0  0  0  0  0  0
  112.5410  152.7979  175.8488 H   0  0  0  0  0  0  0  0  0  0  0  0
  113.8151  151.6868  175.3160 H   0  0  0  0  0  0  0  0  0  0  0  0
  1  2  2  0
  2  3  1  0
  3  4  1  0
  4  5  1  0
  5  6  1  0
  5  7  1  0
  4  8  1  0
  8  9  1  0
  9 10  1  0
 10 11  1  0
 10 12  2  0
 12 13  1  0
 13 14  1  0
 14 15  1  0
 15 16  1  0
  8 17  2  0
 15  2  1  0
  3 18  1  0
  3 19  1  0
  4 20  1  6
  5 21  1  0
  6 22  1  0
  6 23  1  0
  6 24  1  0
  7 25  1  0
  7 26  1  0
  7 27  1  0
  9 28  1  0
  9 29  1  0
 11 30  1  0
 11 31  1  0
 11 32  1  0
 12 33  1  0
 13 34  1  0
 13 35  1  0
 14 36  1  0
 14 37  1  0
 15 38  1  1
 16 39  1  0
 16 40  1  0
 16 41  1  0
M  END
>  <docking_score>  (1) 
-4.5650000000000004

$$$$

     RDKit          3D

 41 41  0  0  0  0  0  0  0  0999 V2000
  117.1749  154.3369  176.0779 O   0  0  0  0  0  0  0  0  0  0  0  0
  116.3118  154.8902  176.7419 C   0  0  0  0  0  0  0  0  0  0  0  0
  116.6886  155.2292  178.1497 C   0  0  0  0  0  0  0  0  0  0  0  0
  117.4337  154.1349  178.8315 C   0  0  1  0  0  0  0  0  0  0  0  0
  118.9038  154.4344  178.9786 C   0  0  0  0  0  0  0  0  0  0  0  0
  119.1687  155.8475  179.3960 C   0  0  0  0  0  0  0  0  0  0  0  0
  119.6876  154.1279  177.7292 C   0  0  0  0  0  0  0  0  0  0  0  0
  116.8048  153.6919  180.1148 C   0  0  0  0  0  0  0  0  0  0  0  0
  115.5195  153.0696  180.2502 C   0  0  0  0  0  0  0  0  0  0  0  0
  114.4131  153.4637  179.2388 C   0  0  0  0  0  0  0  0  0  0  0  0
  113.5115  154.3252  180.1301 C   0  0  0  0  0  0  0  0  0  0  0  0
  114.3219  153.1403  177.9909 C   0  0  0  0  0  0  0  0  0  0  0  0
  113.4495  153.3236  176.7828 C   0  0  0  0  0  0  0  0  0  0  0  0
  114.2847  153.9628  175.6432 C   0  0  0  0  0  0  0  0  0  0  0  0
  114.9794  155.1951  176.1616 C   0  0  2  0  0  0  0  0  0  0  0  0
  115.2064  156.1197  174.9821 C   0  0  0  0  0  0  0  0  0  0  0  0
  117.4877  153.9009  181.1116 O   0  0  0  0  0  0  0  0  0  0  0  0
  115.8252  155.6179  178.7230 H   0  0  0  0  0  0  0  0  0  0  0  0
  117.3918  156.1095  178.0564 H   0  0  0  0  0  0  0  0  0  0  0  0
  117.3753  153.2303  178.1557 H   0  0  0  0  0  0  0  0  0  0  0  0
  119.2824  153.7134  179.7610 H   0  0  0  0  0  0  0  0  0  0  0  0
  118.8593  156.0679  180.4371 H   0  0  0  0  0  0  0  0  0  0  0  0
  118.5736  156.5284  178.7388 H   0  0  0  0  0  0  0  0  0  0  0  0
  120.2354  156.1526  179.2730 H   0  0  0  0  0  0  0  0  0  0  0  0
  119.1072  154.1654  176.8088 H   0  0  0  0  0  0  0  0  0  0  0  0
  120.4863  154.9166  177.6592 H   0  0  0  0  0  0  0  0  0  0  0  0
  120.2372  153.1633  177.8484 H   0  0  0  0  0  0  0  0  0  0  0  0
  115.1237  153.3981  181.2793 H   0  0  0  0  0  0  0  0  0  0  0  0
  115.6303  151.9919  180.4221 H   0  0  0  0  0  0  0  0  0  0  0  0
  113.6174  155.3423  180.2716 H   0  0  0  0  0  0  0  0  0  0  0  0
  112.4567  154.1400  179.7444 H   0  0  0  0  0  0  0  0  0  0  0  0
  113.4647  153.8711  181.1769 H   0  0  0  0  0  0  0  0  0  0  0  0
  115.1308  152.4754  177.4268 H   0  0  0  0  0  0  0  0  0  0  0  0
  113.1316  152.2847  176.4127 H   0  0  0  0  0  0  0  0  0  0  0  0
  112.5412  153.8658  176.7915 H   0  0  0  0  0  0  0  0  0  0  0  0
  114.9960  153.2413  175.2316 H   0  0  0  0  0  0  0  0  0  0  0  0
  113.5741  154.2547  174.8464 H   0  0  0  0  0  0  0  0  0  0  0  0
  114.3762  155.7498  176.8944 H   0  0  0  0  0  0  0  0  0  0  0  0
  114.5489  155.9030  174.1341 H   0  0  0  0  0  0  0  0  0  0  0  0
  115.1186  157.1929  175.2649 H   0  0  0  0  0  0  0  0  0  0  0  0
  116.2648  156.0145  174.6023 H   0  0  0  0  0  0  0  0  0  0  0  0
  1  2  2  0
  2  3  1  0
  3  4  1  0
  4  5  1  0
  5  6  1  0
  5  7  1  0
  4  8  1  0
  8  9  1  0
  9 10  1  0
 10 11  1  0
 10 12  2  0
 12 13  1  0
 13 14  1  0
 14 15  1  0
 15 16  1  0
  8 17  2  0
 15  2  1  0
  3 18  1  0
  3 19  1  0
  4 20  1  6
  5 21  1  0
  6 22  1  0
  6 23  1  0
  6 24  1  0
  7 25  1  0
  7 26  1  0
  7 27  1  0
  9 28  1  0
  9 29  1  0
 11 30  1  0
 11 31  1  0
 11 32  1  0
 12 33  1  0
 13 34  1  0
 13 35  1  0
 14 36  1  0
 14 37  1  0
 15 38  1  1
 16 39  1  0
 16 40  1  0
 16 41  1  0
M  END
>  <docking_score>  (2) 
-4.3849999999999998

$$$$

     RDKit          3D

 41 41  0  0  0  0  0  0  0  0999 V2000
  138.0026  151.4380  194.8240 O   0  0  0  0  0  0  0  0  0  0  0  0
  137.7508  151.0059  195.9384 C   0  0  0  0  0  0  0  0  0  0  0  0
  136.9197  149.7625  195.9839 C   0  0  0  0  0  0  0  0  0  0  0  0
  135.7825  149.7881  195.0228 C   0  0  1  0  0  0  0  0  0  0  0  0
  136.0099  148.8987  193.8270 C   0  0  0  0  0  0  0  0  0  0  0  0
  137.1633  147.9624  194.0118 C   0  0  0  0  0  0  0  0  0  0  0  0
  136.1984  149.6768  192.5509 C   0  0  0  0  0  0  0  0  0  0  0  0
  134.4506  149.5603  195.6652 C   0  0  0  0  0  0  0  0  0  0  0  0
  133.8216  150.4217  196.6242 C   0  0  0  0  0  0  0  0  0  0  0  0
  134.7339  151.2201  197.5899 C   0  0  0  0  0  0  0  0  0  0  0  0
  134.4974  150.4551  198.8969 C   0  0  0  0  0  0  0  0  0  0  0  0
  135.4814  152.2394  197.3205 C   0  0  0  0  0  0  0  0  0  0  0  0
  136.4366  153.2064  197.9581 C   0  0  0  0  0  0  0  0  0  0  0  0
  137.8027  153.1294  197.2285 C   0  0  0  0  0  0  0  0  0  0  0  0
  138.2518  151.6931  197.1557 C   0  0  2  0  0  0  0  0  0  0  0  0
  139.7656  151.6930  197.0782 C   0  0  0  0  0  0  0  0  0  0  0  0
  133.8856  148.5323  195.3077 O   0  0  0  0  0  0  0  0  0  0  0  0
  136.6339  149.4979  197.0200 H   0  0  0  0  0  0  0  0  0  0  0  0
  137.6187  148.9359  195.6582 H   0  0  0  0  0  0  0  0  0  0  0  0
  135.7269  150.8398  194.6114 H   0  0  0  0  0  0  0  0  0  0  0  0
  135.0490  148.3207  193.6931 H   0  0  0  0  0  0  0  0  0  0  0  0
  136.8597  146.9043  194.1401 H   0  0  0  0  0  0  0  0  0  0  0  0
  137.7072  148.2503  194.9452 H   0  0  0  0  0  0  0  0  0  0  0  0
  137.9136  148.0164  193.1871 H   0  0  0  0  0  0  0  0  0  0  0  0
  137.1768  149.5591  192.0879 H   0  0  0  0  0  0  0  0  0  0  0  0
  135.4314  149.2836  191.8283 H   0  0  0  0  0  0  0  0  0  0  0  0
  135.9282  150.7481  192.7117 H   0  0  0  0  0  0  0  0  0  0  0  0
  133.1954  149.7300  197.2974 H   0  0  0  0  0  0  0  0  0  0  0  0
  133.0218  151.0046  196.1511 H   0  0  0  0  0  0  0  0  0  0  0  0
  134.7505  150.7979  199.8372 H   0  0  0  0  0  0  0  0  0  0  0  0
  133.3824  150.2258  198.9035 H   0  0  0  0  0  0  0  0  0  0  0  0
  134.9539  149.4114  198.8156 H   0  0  0  0  0  0  0  0  0  0  0  0
  135.5804  152.7083  196.2320 H   0  0  0  0  0  0  0  0  0  0  0  0
  136.0341  154.2679  197.7887 H   0  0  0  0  0  0  0  0  0  0  0  0
  136.6775  153.2006  198.9882 H   0  0  0  0  0  0  0  0  0  0  0  0
  137.7386  153.5832  196.2356 H   0  0  0  0  0  0  0  0  0  0  0  0
  138.5265  153.7057  197.8361 H   0  0  0  0  0  0  0  0  0  0  0  0
  137.9748  151.1127  198.0473 H   0  0  0  0  0  0  0  0  0  0  0  0
  140.2457  151.6448  198.0607 H   0  0  0  0  0  0  0  0  0  0  0  0
  140.1541  150.8784  196.4263 H   0  0  0  0  0  0  0  0  0  0  0  0
  140.1310  152.6432  196.5891 H   0  0  0  0  0  0  0  0  0  0  0  0
  1  2  2  0
  2  3  1  0
  3  4  1  0
  4  5  1  0
  5  6  1  0
  5  7  1  0
  4  8  1  0
  8  9  1  0
  9 10  1  0
 10 11  1  0
 10 12  2  0
 12 13  1  0
 13 14  1  0
 14 15  1  0
 15 16  1  0
  8 17  2  0
 15  2  1  0
  3 18  1  0
  3 19  1  0
  4 20  1  6
  5 21  1  0
  6 22  1  0
  6 23  1  0
  6 24  1  0
  7 25  1  0
  7 26  1  0
  7 27  1  0
  9 28  1  0
  9 29  1  0
 11 30  1  0
 11 31  1  0
 11 32  1  0
 12 33  1  0
 13 34  1  0
 13 35  1  0
 14 36  1  0
 14 37  1  0
 15 38  1  1
 16 39  1  0
 16 40  1  0
 16 41  1  0
M  END
>  <docking_score>  (3) 
-4.2690000000000001

$$$$
